WARNING: physical memory size is smaller than virtual memory size.

*** ChampSim Multicore Out-of-Order Simulator ***
Warmup Instructions: 10000000
Simulation Instructions: 10000000
Number of CPUs: 1
Page size: 4096

Off-chip DRAM Size: 4 GiB Channels: 1 Width: 64-bit Data Race: 800 MT/s
Heartbeat CPU 0 instructions: 10000000 cycles: 2507702 heartbeat IPC: 3.988 cumulative IPC: 3.988 (Simulation time: 00 hr 00 min 40 sec)
Warmup finished CPU 0 instructions: 10000000 cycles: 2507703 cumulative IPC: 3.988 (Simulation time: 00 hr 00 min 40 sec)
Warmup complete CPU 0 instructions: 10000000 cycles: 2507703 cumulative IPC: 3.988 (Simulation time: 00 hr 00 min 40 sec)
Heartbeat CPU 0 instructions: 20000002 cycles: 43005991 heartbeat IPC: 0.2469 cumulative IPC: 0.2469 (Simulation time: 00 hr 05 min 50 sec)
Simulation finished CPU 0 instructions: 10000002 cycles: 40498289 cumulative IPC: 0.2469 (Simulation time: 00 hr 05 min 50 sec)
Simulation complete CPU 0 instructions: 10000002 cycles: 40498289 cumulative IPC: 0.2469 (Simulation time: 00 hr 05 min 50 sec)

ChampSim completed all CPUs

=== Simulation ===
CPU 0 runs /scratch/cluster/hill/traces/spec2006/lbm_1004B.trace.xz
Region of Interest Statistics

CPU 0 cumulative IPC: 0.2469 instructions: 10000002 cycles: 40498289
CPU 0 Branch Prediction Accuracy: 99.49% MPKI: 0.0589 Average ROB Occupancy at Mispredict: 348.2
Branch type MPKI
BRANCH_DIRECT_JUMP: 0
BRANCH_INDIRECT: 0
BRANCH_CONDITIONAL: 0.0589
BRANCH_DIRECT_CALL: 0
BRANCH_INDIRECT_CALL: 0
BRANCH_RETURN: 0

LLC TOTAL        ACCESS:     518706 HIT:     222709 MISS:     295997
LLC LOAD         ACCESS:      74001 HIT:          0 MISS:      74001
LLC RFO          ACCESS:     222722 HIT:        749 MISS:     221973
LLC PREFETCH     ACCESS:          0 HIT:          0 MISS:          0
LLC WRITE        ACCESS:     221949 HIT:     221949 MISS:          0
LLC TRANSLATION  ACCESS:         34 HIT:         11 MISS:         23
LLC PREFETCH REQUESTED:          0 ISSUED:          0 USEFUL:          0 USELESS:          0
LLC AVERAGE MISS LATENCY: 1708 cycles
cpu0_DTLB TOTAL        ACCESS:    1669042 HIT:    1663599 MISS:       5443
cpu0_DTLB LOAD         ACCESS:    1669042 HIT:    1663599 MISS:       5443
cpu0_DTLB RFO          ACCESS:          0 HIT:          0 MISS:          0
cpu0_DTLB PREFETCH     ACCESS:          0 HIT:          0 MISS:          0
cpu0_DTLB WRITE        ACCESS:          0 HIT:          0 MISS:          0
cpu0_DTLB TRANSLATION  ACCESS:          0 HIT:          0 MISS:          0
cpu0_DTLB PREFETCH REQUESTED:          0 ISSUED:          0 USEFUL:          0 USELESS:          0
cpu0_DTLB AVERAGE MISS LATENCY: 241.9 cycles
cpu0_ITLB TOTAL        ACCESS:          0 HIT:          0 MISS:          0
cpu0_ITLB LOAD         ACCESS:          0 HIT:          0 MISS:          0
cpu0_ITLB RFO          ACCESS:          0 HIT:          0 MISS:          0
cpu0_ITLB PREFETCH     ACCESS:          0 HIT:          0 MISS:          0
cpu0_ITLB WRITE        ACCESS:          0 HIT:          0 MISS:          0
cpu0_ITLB TRANSLATION  ACCESS:          0 HIT:          0 MISS:          0
cpu0_ITLB PREFETCH REQUESTED:          0 ISSUED:          0 USEFUL:          0 USELESS:          0
cpu0_ITLB AVERAGE MISS LATENCY: -nan cycles
cpu0_L1D TOTAL        ACCESS:    2017043 HIT:     995405 MISS:    1021638
cpu0_L1D LOAD         ACCESS:     995501 HIT:     404375 MISS:     591126
cpu0_L1D RFO          ACCESS:          0 HIT:          0 MISS:          0
cpu0_L1D PREFETCH     ACCESS:          0 HIT:          0 MISS:          0
cpu0_L1D WRITE        ACCESS:    1016909 HIT:     590640 MISS:     426269
cpu0_L1D TRANSLATION  ACCESS:       4633 HIT:        390 MISS:       4243
cpu0_L1D PREFETCH REQUESTED:          0 ISSUED:          0 USEFUL:          0 USELESS:          0
cpu0_L1D AVERAGE MISS LATENCY: 455.3 cycles
cpu0_L1I TOTAL        ACCESS:          0 HIT:          0 MISS:          0
cpu0_L1I LOAD         ACCESS:          0 HIT:          0 MISS:          0
cpu0_L1I RFO          ACCESS:          0 HIT:          0 MISS:          0
cpu0_L1I PREFETCH     ACCESS:          0 HIT:          0 MISS:          0
cpu0_L1I WRITE        ACCESS:          0 HIT:          0 MISS:          0
cpu0_L1I TRANSLATION  ACCESS:          0 HIT:          0 MISS:          0
cpu0_L1I PREFETCH REQUESTED:          0 ISSUED:          0 USEFUL:          0 USELESS:          0
cpu0_L1I AVERAGE MISS LATENCY: -nan cycles
cpu0_L2C TOTAL        ACCESS:     913283 HIT:     616527 MISS:     296756
cpu0_L2C LOAD         ACCESS:      74001 HIT:          0 MISS:      74001
cpu0_L2C RFO          ACCESS:     417519 HIT:     194798 MISS:     222721
cpu0_L2C PREFETCH     ACCESS:          0 HIT:          0 MISS:          0
cpu0_L2C WRITE        ACCESS:     417520 HIT:     417520 MISS:          0
cpu0_L2C TRANSLATION  ACCESS:       4243 HIT:       4209 MISS:         34
cpu0_L2C PREFETCH REQUESTED:          0 ISSUED:          0 USEFUL:          0 USELESS:          0
cpu0_L2C AVERAGE MISS LATENCY: 1724 cycles
cpu0_STLB TOTAL        ACCESS:       4629 HIT:          0 MISS:       4629
cpu0_STLB LOAD         ACCESS:       4629 HIT:          0 MISS:       4629
cpu0_STLB RFO          ACCESS:          0 HIT:          0 MISS:          0
cpu0_STLB PREFETCH     ACCESS:          0 HIT:          0 MISS:          0
cpu0_STLB WRITE        ACCESS:          0 HIT:          0 MISS:          0
cpu0_STLB TRANSLATION  ACCESS:          0 HIT:          0 MISS:          0
cpu0_STLB PREFETCH REQUESTED:          0 ISSUED:          0 USEFUL:          0 USELESS:          0
cpu0_STLB AVERAGE MISS LATENCY: 290.4 cycles

DRAM Statistics

Channel 0 RQ ROW_BUFFER_HIT:      22454
  ROW_BUFFER_MISS:     273535
 AVG DBUS CONGESTED CYCLE: 3.98
WQ ROW_BUFFER_HIT: Channel 0 
  ROW_BUFFER_MISS:      10298
  FULL:     210214
