WARNING: physical memory size is smaller than virtual memory size.

*** ChampSim Multicore Out-of-Order Simulator ***
Warmup Instructions: 10000000
Simulation Instructions: 10000000
Number of CPUs: 1
Page size: 4096

Off-chip DRAM Size: 4 GiB Channels: 1 Width: 64-bit Data Race: 800 MT/s
Heartbeat CPU 0 instructions: 10000003 cycles: 2560991 heartbeat IPC: 3.905 cumulative IPC: 3.905 (Simulation time: 00 hr 01 min 00 sec)
Warmup finished CPU 0 instructions: 10000003 cycles: 2560992 cumulative IPC: 3.905 (Simulation time: 00 hr 01 min 00 sec)
Warmup complete CPU 0 instructions: 10000003 cycles: 2560992 cumulative IPC: 3.905 (Simulation time: 00 hr 01 min 00 sec)
Heartbeat CPU 0 instructions: 20000001 cycles: 11600548 heartbeat IPC: 1.106 cumulative IPC: 1.106 (Simulation time: 00 hr 02 min 56 sec)
Simulation finished CPU 0 instructions: 10000002 cycles: 9039558 cumulative IPC: 1.106 (Simulation time: 00 hr 02 min 56 sec)
Simulation complete CPU 0 instructions: 10000002 cycles: 9039558 cumulative IPC: 1.106 (Simulation time: 00 hr 02 min 56 sec)

ChampSim completed all CPUs

=== Simulation ===
CPU 0 runs /scratch/cluster/hill/traces/spec2006/wrf_1228B.trace.xz
Region of Interest Statistics

CPU 0 cumulative IPC: 1.106 instructions: 10000002 cycles: 9039558
CPU 0 Branch Prediction Accuracy: 96.31% MPKI: 1.539 Average ROB Occupancy at Mispredict: 322.3
Branch type MPKI
BRANCH_DIRECT_JUMP: 0.0012
BRANCH_INDIRECT: 0
BRANCH_CONDITIONAL: 1.54
BRANCH_DIRECT_CALL: 0
BRANCH_INDIRECT_CALL: 0
BRANCH_RETURN: 0

LLC TOTAL        ACCESS:     143346 HIT:      39339 MISS:     104007
LLC LOAD         ACCESS:     106740 HIT:       3221 MISS:     103519
LLC RFO          ACCESS:        530 HIT:        305 MISS:        225
LLC PREFETCH     ACCESS:          0 HIT:          0 MISS:          0
LLC WRITE        ACCESS:      36014 HIT:      35799 MISS:        215
LLC TRANSLATION  ACCESS:         62 HIT:         14 MISS:         48
LLC PREFETCH REQUESTED:          0 ISSUED:          0 USEFUL:          0 USELESS:          0
LLC AVERAGE MISS LATENCY: 294.3 cycles
cpu0_DTLB TOTAL        ACCESS:    2348429 HIT:    2338826 MISS:       9603
cpu0_DTLB LOAD         ACCESS:    2348429 HIT:    2338826 MISS:       9603
cpu0_DTLB RFO          ACCESS:          0 HIT:          0 MISS:          0
cpu0_DTLB PREFETCH     ACCESS:          0 HIT:          0 MISS:          0
cpu0_DTLB WRITE        ACCESS:          0 HIT:          0 MISS:          0
cpu0_DTLB TRANSLATION  ACCESS:          0 HIT:          0 MISS:          0
cpu0_DTLB PREFETCH REQUESTED:          0 ISSUED:          0 USEFUL:          0 USELESS:          0
cpu0_DTLB AVERAGE MISS LATENCY: 8.262 cycles
cpu0_ITLB TOTAL        ACCESS:       3602 HIT:       3583 MISS:         19
cpu0_ITLB LOAD         ACCESS:       3602 HIT:       3583 MISS:         19
cpu0_ITLB RFO          ACCESS:          0 HIT:          0 MISS:          0
cpu0_ITLB PREFETCH     ACCESS:          0 HIT:          0 MISS:          0
cpu0_ITLB WRITE        ACCESS:          0 HIT:          0 MISS:          0
cpu0_ITLB TRANSLATION  ACCESS:          0 HIT:          0 MISS:          0
cpu0_ITLB PREFETCH REQUESTED:          0 ISSUED:          0 USEFUL:          0 USELESS:          0
cpu0_ITLB AVERAGE MISS LATENCY: 132.2 cycles
cpu0_L1D TOTAL        ACCESS:    2956324 HIT:    1786204 MISS:    1170120
cpu0_L1D LOAD         ACCESS:    2484976 HIT:    1350688 MISS:    1134288
cpu0_L1D RFO          ACCESS:          0 HIT:          0 MISS:          0
cpu0_L1D PREFETCH     ACCESS:          0 HIT:          0 MISS:          0
cpu0_L1D WRITE        ACCESS:     470395 HIT:     435139 MISS:      35256
cpu0_L1D TRANSLATION  ACCESS:        953 HIT:        377 MISS:        576
cpu0_L1D PREFETCH REQUESTED:          0 ISSUED:          0 USEFUL:          0 USELESS:          0
cpu0_L1D AVERAGE MISS LATENCY: 18.76 cycles
cpu0_L1I TOTAL        ACCESS:       3959 HIT:       3739 MISS:        220
cpu0_L1I LOAD         ACCESS:       3959 HIT:       3739 MISS:        220
cpu0_L1I RFO          ACCESS:          0 HIT:          0 MISS:          0
cpu0_L1I PREFETCH     ACCESS:          0 HIT:          0 MISS:          0
cpu0_L1I WRITE        ACCESS:          0 HIT:          0 MISS:          0
cpu0_L1I TRANSLATION  ACCESS:          0 HIT:          0 MISS:          0
cpu0_L1I PREFETCH REQUESTED:          0 ISSUED:          0 USEFUL:          0 USELESS:          0
cpu0_L1I AVERAGE MISS LATENCY: 206.5 cycles
cpu0_L2C TOTAL        ACCESS:     298086 HIT:     190696 MISS:     107390
cpu0_L2C LOAD         ACCESS:     206710 HIT:      99968 MISS:     106742
cpu0_L2C RFO          ACCESS:      22651 HIT:      22121 MISS:        530
cpu0_L2C PREFETCH     ACCESS:          0 HIT:          0 MISS:          0
cpu0_L2C WRITE        ACCESS:      68149 HIT:      68093 MISS:         56
cpu0_L2C TRANSLATION  ACCESS:        576 HIT:        514 MISS:         62
cpu0_L2C PREFETCH REQUESTED:          0 ISSUED:          0 USEFUL:          0 USELESS:          0
cpu0_L2C AVERAGE MISS LATENCY: 306 cycles
cpu0_STLB TOTAL        ACCESS:       1941 HIT:        990 MISS:        951
cpu0_STLB LOAD         ACCESS:       1941 HIT:        990 MISS:        951
cpu0_STLB RFO          ACCESS:          0 HIT:          0 MISS:          0
cpu0_STLB PREFETCH     ACCESS:          0 HIT:          0 MISS:          0
cpu0_STLB WRITE        ACCESS:          0 HIT:          0 MISS:          0
cpu0_STLB TRANSLATION  ACCESS:          0 HIT:          0 MISS:          0
cpu0_STLB PREFETCH REQUESTED:          0 ISSUED:          0 USEFUL:          0 USELESS:          0
cpu0_STLB AVERAGE MISS LATENCY: 188.6 cycles

DRAM Statistics

Channel 0 RQ ROW_BUFFER_HIT:      35516
  ROW_BUFFER_MISS:      68274
 AVG DBUS CONGESTED CYCLE: 3.775
WQ ROW_BUFFER_HIT: Channel 0 
  ROW_BUFFER_MISS:       4296
  FULL:      30241
