WARNING: physical memory size is smaller than virtual memory size.

*** ChampSim Multicore Out-of-Order Simulator ***
Warmup Instructions: 10000000
Simulation Instructions: 10000000
Number of CPUs: 1
Page size: 4096

Off-chip DRAM Size: 4 GiB Channels: 1 Width: 64-bit Data Race: 800 MT/s
Heartbeat CPU 0 instructions: 10000001 cycles: 2535625 heartbeat IPC: 3.944 cumulative IPC: 3.944 (Simulation time: 00 hr 00 min 35 sec)
Warmup finished CPU 0 instructions: 10000001 cycles: 2535626 cumulative IPC: 3.944 (Simulation time: 00 hr 00 min 35 sec)
Warmup complete CPU 0 instructions: 10000001 cycles: 2535626 cumulative IPC: 3.944 (Simulation time: 00 hr 00 min 35 sec)
Heartbeat CPU 0 instructions: 20000000 cycles: 10476556 heartbeat IPC: 1.259 cumulative IPC: 1.259 (Simulation time: 00 hr 02 min 08 sec)
Simulation finished CPU 0 instructions: 10000003 cycles: 7940932 cumulative IPC: 1.259 (Simulation time: 00 hr 02 min 08 sec)
Simulation complete CPU 0 instructions: 10000003 cycles: 7940932 cumulative IPC: 1.259 (Simulation time: 00 hr 02 min 08 sec)

ChampSim completed all CPUs

=== Simulation ===
CPU 0 runs /scratch/cluster/hill/traces/spec2006/bzip2_259B.trace.xz
Region of Interest Statistics

CPU 0 cumulative IPC: 1.259 instructions: 10000003 cycles: 7940932
CPU 0 Branch Prediction Accuracy: 99.76% MPKI: 0.3024 Average ROB Occupancy at Mispredict: 202.1
Branch type MPKI
BRANCH_DIRECT_JUMP: 0.0024
BRANCH_INDIRECT: 0.0023
BRANCH_CONDITIONAL: 0.297
BRANCH_DIRECT_CALL: 0.0004
BRANCH_INDIRECT_CALL: 0
BRANCH_RETURN: 0.0006

LLC TOTAL        ACCESS:     166817 HIT:     110013 MISS:      56804
LLC LOAD         ACCESS:     104165 HIT:      54835 MISS:      49330
LLC RFO          ACCESS:       7456 HIT:          7 MISS:       7449
LLC PREFETCH     ACCESS:          0 HIT:          0 MISS:          0
LLC WRITE        ACCESS:      55164 HIT:      55163 MISS:          1
LLC TRANSLATION  ACCESS:         32 HIT:          8 MISS:         24
LLC PREFETCH REQUESTED:          0 ISSUED:          0 USEFUL:          0 USELESS:          0
LLC AVERAGE MISS LATENCY: 472.4 cycles
cpu0_DTLB TOTAL        ACCESS:    2186023 HIT:    2142968 MISS:      43055
cpu0_DTLB LOAD         ACCESS:    2186023 HIT:    2142968 MISS:      43055
cpu0_DTLB RFO          ACCESS:          0 HIT:          0 MISS:          0
cpu0_DTLB PREFETCH     ACCESS:          0 HIT:          0 MISS:          0
cpu0_DTLB WRITE        ACCESS:          0 HIT:          0 MISS:          0
cpu0_DTLB TRANSLATION  ACCESS:          0 HIT:          0 MISS:          0
cpu0_DTLB PREFETCH REQUESTED:          0 ISSUED:          0 USEFUL:          0 USELESS:          0
cpu0_DTLB AVERAGE MISS LATENCY: 8.484 cycles
cpu0_ITLB TOTAL        ACCESS:         73 HIT:         69 MISS:          4
cpu0_ITLB LOAD         ACCESS:         73 HIT:         69 MISS:          4
cpu0_ITLB RFO          ACCESS:          0 HIT:          0 MISS:          0
cpu0_ITLB PREFETCH     ACCESS:          0 HIT:          0 MISS:          0
cpu0_ITLB WRITE        ACCESS:          0 HIT:          0 MISS:          0
cpu0_ITLB TRANSLATION  ACCESS:          0 HIT:          0 MISS:          0
cpu0_ITLB PREFETCH REQUESTED:          0 ISSUED:          0 USEFUL:          0 USELESS:          0
cpu0_ITLB AVERAGE MISS LATENCY: 274.2 cycles
cpu0_L1D TOTAL        ACCESS:    3107607 HIT:    1985161 MISS:    1122446
cpu0_L1D LOAD         ACCESS:    1512109 HIT:     500268 MISS:    1011841
cpu0_L1D RFO          ACCESS:          0 HIT:          0 MISS:          0
cpu0_L1D PREFETCH     ACCESS:          0 HIT:          0 MISS:          0
cpu0_L1D WRITE        ACCESS:    1595034 HIT:    1484490 MISS:     110544
cpu0_L1D TRANSLATION  ACCESS:        464 HIT:        403 MISS:         61
cpu0_L1D PREFETCH REQUESTED:          0 ISSUED:          0 USEFUL:          0 USELESS:          0
cpu0_L1D AVERAGE MISS LATENCY: 19.11 cycles
cpu0_L1I TOTAL        ACCESS:         88 HIT:         38 MISS:         50
cpu0_L1I LOAD         ACCESS:         88 HIT:         38 MISS:         50
cpu0_L1I RFO          ACCESS:          0 HIT:          0 MISS:          0
cpu0_L1I PREFETCH     ACCESS:          0 HIT:          0 MISS:          0
cpu0_L1I WRITE        ACCESS:          0 HIT:          0 MISS:          0
cpu0_L1I TRANSLATION  ACCESS:          0 HIT:          0 MISS:          0
cpu0_L1I PREFETCH REQUESTED:          0 ISSUED:          0 USEFUL:          0 USELESS:          0
cpu0_L1I AVERAGE MISS LATENCY: 319.2 cycles
cpu0_L2C TOTAL        ACCESS:     183744 HIT:      72079 MISS:     111665
cpu0_L2C LOAD         ACCESS:     120774 HIT:      16609 MISS:     104165
cpu0_L2C RFO          ACCESS:       8739 HIT:       1284 MISS:       7455
cpu0_L2C PREFETCH     ACCESS:          0 HIT:          0 MISS:          0
cpu0_L2C WRITE        ACCESS:      54171 HIT:      54158 MISS:         13
cpu0_L2C TRANSLATION  ACCESS:         60 HIT:         28 MISS:         32
cpu0_L2C PREFETCH REQUESTED:          0 ISSUED:          0 USEFUL:          0 USELESS:          0
cpu0_L2C AVERAGE MISS LATENCY: 260.8 cycles
cpu0_STLB TOTAL        ACCESS:      37133 HIT:      36672 MISS:        461
cpu0_STLB LOAD         ACCESS:      37133 HIT:      36672 MISS:        461
cpu0_STLB RFO          ACCESS:          0 HIT:          0 MISS:          0
cpu0_STLB PREFETCH     ACCESS:          0 HIT:          0 MISS:          0
cpu0_STLB WRITE        ACCESS:          0 HIT:          0 MISS:          0
cpu0_STLB TRANSLATION  ACCESS:          0 HIT:          0 MISS:          0
cpu0_STLB PREFETCH REQUESTED:          0 ISSUED:          0 USEFUL:          0 USELESS:          0
cpu0_STLB AVERAGE MISS LATENCY: 237.4 cycles

DRAM Statistics

Channel 0 RQ ROW_BUFFER_HIT:      18393
  ROW_BUFFER_MISS:      38378
 AVG DBUS CONGESTED CYCLE: 3.892
WQ ROW_BUFFER_HIT: Channel 0 
  ROW_BUFFER_MISS:       4828
  FULL:      32590
