WARNING: physical memory size is smaller than virtual memory size.

*** ChampSim Multicore Out-of-Order Simulator ***
Warmup Instructions: 10000000
Simulation Instructions: 10000000
Number of CPUs: 1
Page size: 4096

Off-chip DRAM Size: 4 GiB Channels: 1 Width: 64-bit Data Race: 800 MT/s
Heartbeat CPU 0 instructions: 10000000 cycles: 2500619 heartbeat IPC: 3.999 cumulative IPC: 3.999 (Simulation time: 00 hr 00 min 48 sec)
Warmup finished CPU 0 instructions: 10000000 cycles: 2500620 cumulative IPC: 3.999 (Simulation time: 00 hr 00 min 48 sec)
Warmup complete CPU 0 instructions: 10000000 cycles: 2500620 cumulative IPC: 3.999 (Simulation time: 00 hr 00 min 48 sec)
Heartbeat CPU 0 instructions: 20000002 cycles: 9411856 heartbeat IPC: 1.447 cumulative IPC: 1.447 (Simulation time: 00 hr 02 min 16 sec)
Simulation finished CPU 0 instructions: 10000002 cycles: 6911237 cumulative IPC: 1.447 (Simulation time: 00 hr 02 min 16 sec)
Simulation complete CPU 0 instructions: 10000002 cycles: 6911237 cumulative IPC: 1.447 (Simulation time: 00 hr 02 min 16 sec)

ChampSim completed all CPUs

=== Simulation ===
CPU 0 runs /scratch/cluster/hill/traces/spec2006/hmmer_7B.trace.xz
Region of Interest Statistics

CPU 0 cumulative IPC: 1.447 instructions: 10000002 cycles: 6911237
CPU 0 Branch Prediction Accuracy: 99.2% MPKI: 0.2963 Average ROB Occupancy at Mispredict: 274.8
Branch type MPKI
BRANCH_DIRECT_JUMP: 0
BRANCH_INDIRECT: 0
BRANCH_CONDITIONAL: 0.296
BRANCH_DIRECT_CALL: 0
BRANCH_INDIRECT_CALL: 0
BRANCH_RETURN: 0

LLC TOTAL        ACCESS:      61862 HIT:      30786 MISS:      31076
LLC LOAD         ACCESS:       1884 HIT:       1475 MISS:        409
LLC RFO          ACCESS:      30739 HIT:         74 MISS:      30665
LLC PREFETCH     ACCESS:          0 HIT:          0 MISS:          0
LLC WRITE        ACCESS:      29238 HIT:      29237 MISS:          1
LLC TRANSLATION  ACCESS:          1 HIT:          0 MISS:          1
LLC PREFETCH REQUESTED:          0 ISSUED:          0 USEFUL:          0 USELESS:          0
LLC AVERAGE MISS LATENCY: 2844 cycles
cpu0_DTLB TOTAL        ACCESS:    2142003 HIT:    2139134 MISS:       2869
cpu0_DTLB LOAD         ACCESS:    2142003 HIT:    2139134 MISS:       2869
cpu0_DTLB RFO          ACCESS:          0 HIT:          0 MISS:          0
cpu0_DTLB PREFETCH     ACCESS:          0 HIT:          0 MISS:          0
cpu0_DTLB WRITE        ACCESS:          0 HIT:          0 MISS:          0
cpu0_DTLB TRANSLATION  ACCESS:          0 HIT:          0 MISS:          0
cpu0_DTLB PREFETCH REQUESTED:          0 ISSUED:          0 USEFUL:          0 USELESS:          0
cpu0_DTLB AVERAGE MISS LATENCY: 19.14 cycles
cpu0_ITLB TOTAL        ACCESS:          0 HIT:          0 MISS:          0
cpu0_ITLB LOAD         ACCESS:          0 HIT:          0 MISS:          0
cpu0_ITLB RFO          ACCESS:          0 HIT:          0 MISS:          0
cpu0_ITLB PREFETCH     ACCESS:          0 HIT:          0 MISS:          0
cpu0_ITLB WRITE        ACCESS:          0 HIT:          0 MISS:          0
cpu0_ITLB TRANSLATION  ACCESS:          0 HIT:          0 MISS:          0
cpu0_ITLB PREFETCH REQUESTED:          0 ISSUED:          0 USEFUL:          0 USELESS:          0
cpu0_ITLB AVERAGE MISS LATENCY: -nan cycles
cpu0_L1D TOTAL        ACCESS:    2969220 HIT:    1659380 MISS:    1309840
cpu0_L1D LOAD         ACCESS:    1646238 HIT:    1611691 MISS:      34547
cpu0_L1D RFO          ACCESS:          0 HIT:          0 MISS:          0
cpu0_L1D PREFETCH     ACCESS:          0 HIT:          0 MISS:          0
cpu0_L1D WRITE        ACCESS:    1322629 HIT:      47647 MISS:    1274982
cpu0_L1D TRANSLATION  ACCESS:        353 HIT:         42 MISS:        311
cpu0_L1D PREFETCH REQUESTED:          0 ISSUED:          0 USEFUL:          0 USELESS:          0
cpu0_L1D AVERAGE MISS LATENCY: 56.6 cycles
cpu0_L1I TOTAL        ACCESS:          0 HIT:          0 MISS:          0
cpu0_L1I LOAD         ACCESS:          0 HIT:          0 MISS:          0
cpu0_L1I RFO          ACCESS:          0 HIT:          0 MISS:          0
cpu0_L1I PREFETCH     ACCESS:          0 HIT:          0 MISS:          0
cpu0_L1I WRITE        ACCESS:          0 HIT:          0 MISS:          0
cpu0_L1I TRANSLATION  ACCESS:          0 HIT:          0 MISS:          0
cpu0_L1I PREFETCH REQUESTED:          0 ISSUED:          0 USEFUL:          0 USELESS:          0
cpu0_L1I AVERAGE MISS LATENCY: -nan cycles
cpu0_L2C TOTAL        ACCESS:      83250 HIT:      50625 MISS:      32625
cpu0_L2C LOAD         ACCESS:      23063 HIT:      21179 MISS:       1884
cpu0_L2C RFO          ACCESS:      30739 HIT:          0 MISS:      30739
cpu0_L2C PREFETCH     ACCESS:          0 HIT:          0 MISS:          0
cpu0_L2C WRITE        ACCESS:      29137 HIT:      29136 MISS:          1
cpu0_L2C TRANSLATION  ACCESS:        311 HIT:        310 MISS:          1
cpu0_L2C PREFETCH REQUESTED:          0 ISSUED:          0 USEFUL:          0 USELESS:          0
cpu0_L2C AVERAGE MISS LATENCY: 2730 cycles
cpu0_STLB TOTAL        ACCESS:        866 HIT:        513 MISS:        353
cpu0_STLB LOAD         ACCESS:        866 HIT:        513 MISS:        353
cpu0_STLB RFO          ACCESS:          0 HIT:          0 MISS:          0
cpu0_STLB PREFETCH     ACCESS:          0 HIT:          0 MISS:          0
cpu0_STLB WRITE        ACCESS:          0 HIT:          0 MISS:          0
cpu0_STLB TRANSLATION  ACCESS:          0 HIT:          0 MISS:          0
cpu0_STLB PREFETCH REQUESTED:          0 ISSUED:          0 USEFUL:          0 USELESS:          0
cpu0_STLB AVERAGE MISS LATENCY: 263.8 cycles

DRAM Statistics

Channel 0 RQ ROW_BUFFER_HIT:      13277
  ROW_BUFFER_MISS:      17782
 AVG DBUS CONGESTED CYCLE: 3.956
WQ ROW_BUFFER_HIT: Channel 0 
  ROW_BUFFER_MISS:       6182
  FULL:      22375
