WARNING: physical memory size is smaller than virtual memory size.

*** ChampSim Multicore Out-of-Order Simulator ***
Warmup Instructions: 5000000
Simulation Instructions: 5000000
Number of CPUs: 1
Page size: 4096

Off-chip DRAM Size: 4 GiB Channels: 1 Width: 64-bit Data Race: 800 MT/s
Warmup finished CPU 0 instructions: 5000002 cycles: 1265656 cumulative IPC: 3.951 (Simulation time: 00 hr 00 min 34 sec)
Warmup complete CPU 0 instructions: 5000002 cycles: 1265656 cumulative IPC: 3.951 (Simulation time: 00 hr 00 min 34 sec)
Heartbeat CPU 0 instructions: 10000000 cycles: 8581476 heartbeat IPC: 1.165 cumulative IPC: 0.6835 (Simulation time: 00 hr 02 min 08 sec)
Simulation finished CPU 0 instructions: 5000002 cycles: 7315822 cumulative IPC: 0.6835 (Simulation time: 00 hr 02 min 08 sec)
Simulation complete CPU 0 instructions: 5000002 cycles: 7315822 cumulative IPC: 0.6835 (Simulation time: 00 hr 02 min 08 sec)

ChampSim completed all CPUs

=== Simulation ===
CPU 0 runs /scratch/cluster/hill/traces/spec2006/sphinx3_883B.trace.xz
Region of Interest Statistics

CPU 0 cumulative IPC: 0.6835 instructions: 5000002 cycles: 7315822
CPU 0 Branch Prediction Accuracy: 93.32% MPKI: 6.431 Average ROB Occupancy at Mispredict: 177.4
Branch type MPKI
BRANCH_DIRECT_JUMP: 0.314
BRANCH_INDIRECT: 0
BRANCH_CONDITIONAL: 6.01
BRANCH_DIRECT_CALL: 0
BRANCH_INDIRECT_CALL: 0
BRANCH_RETURN: 0.106

LLC TOTAL        ACCESS:      83103 HIT:      13036 MISS:      70067
LLC LOAD         ACCESS:      71353 HIT:       5432 MISS:      65921
LLC RFO          ACCESS:       4133 HIT:        710 MISS:       3423
LLC PREFETCH     ACCESS:          0 HIT:          0 MISS:          0
LLC WRITE        ACCESS:       6608 HIT:       6591 MISS:         17
LLC TRANSLATION  ACCESS:       1009 HIT:        303 MISS:        706
LLC PREFETCH REQUESTED:          0 ISSUED:          0 USEFUL:          0 USELESS:          0
LLC AVERAGE MISS LATENCY: 374.7 cycles
cpu0_DTLB TOTAL        ACCESS:    1026470 HIT:     998847 MISS:      27623
cpu0_DTLB LOAD         ACCESS:    1026470 HIT:     998847 MISS:      27623
cpu0_DTLB RFO          ACCESS:          0 HIT:          0 MISS:          0
cpu0_DTLB PREFETCH     ACCESS:          0 HIT:          0 MISS:          0
cpu0_DTLB WRITE        ACCESS:          0 HIT:          0 MISS:          0
cpu0_DTLB TRANSLATION  ACCESS:          0 HIT:          0 MISS:          0
cpu0_DTLB PREFETCH REQUESTED:          0 ISSUED:          0 USEFUL:          0 USELESS:          0
cpu0_DTLB AVERAGE MISS LATENCY: 10.93 cycles
cpu0_ITLB TOTAL        ACCESS:        426 HIT:        426 MISS:          0
cpu0_ITLB LOAD         ACCESS:        426 HIT:        426 MISS:          0
cpu0_ITLB RFO          ACCESS:          0 HIT:          0 MISS:          0
cpu0_ITLB PREFETCH     ACCESS:          0 HIT:          0 MISS:          0
cpu0_ITLB WRITE        ACCESS:          0 HIT:          0 MISS:          0
cpu0_ITLB TRANSLATION  ACCESS:          0 HIT:          0 MISS:          0
cpu0_ITLB PREFETCH REQUESTED:          0 ISSUED:          0 USEFUL:          0 USELESS:          0
cpu0_ITLB AVERAGE MISS LATENCY: -nan cycles
cpu0_L1D TOTAL        ACCESS:    1255831 HIT:     585821 MISS:     670010
cpu0_L1D LOAD         ACCESS:    1127721 HIT:     476541 MISS:     651180
cpu0_L1D RFO          ACCESS:          0 HIT:          0 MISS:          0
cpu0_L1D PREFETCH     ACCESS:          0 HIT:          0 MISS:          0
cpu0_L1D WRITE        ACCESS:     124784 HIT:     108267 MISS:      16517
cpu0_L1D TRANSLATION  ACCESS:       3326 HIT:       1013 MISS:       2313
cpu0_L1D PREFETCH REQUESTED:          0 ISSUED:          0 USEFUL:          0 USELESS:          0
cpu0_L1D AVERAGE MISS LATENCY: 28.04 cycles
cpu0_L1I TOTAL        ACCESS:        488 HIT:        488 MISS:          0
cpu0_L1I LOAD         ACCESS:        488 HIT:        488 MISS:          0
cpu0_L1I RFO          ACCESS:          0 HIT:          0 MISS:          0
cpu0_L1I PREFETCH     ACCESS:          0 HIT:          0 MISS:          0
cpu0_L1I WRITE        ACCESS:          0 HIT:          0 MISS:          0
cpu0_L1I TRANSLATION  ACCESS:          0 HIT:          0 MISS:          0
cpu0_L1I PREFETCH REQUESTED:          0 ISSUED:          0 USEFUL:          0 USELESS:          0
cpu0_L1I AVERAGE MISS LATENCY: -nan cycles
cpu0_L2C TOTAL        ACCESS:     111270 HIT:      34761 MISS:      76509
cpu0_L2C LOAD         ACCESS:      95979 HIT:      24626 MISS:      71353
cpu0_L2C RFO          ACCESS:       4941 HIT:        808 MISS:       4133
cpu0_L2C PREFETCH     ACCESS:          0 HIT:          0 MISS:          0
cpu0_L2C WRITE        ACCESS:       8064 HIT:       8050 MISS:         14
cpu0_L2C TRANSLATION  ACCESS:       2286 HIT:       1277 MISS:       1009
cpu0_L2C PREFETCH REQUESTED:          0 ISSUED:          0 USEFUL:          0 USELESS:          0
cpu0_L2C AVERAGE MISS LATENCY: 364.1 cycles
cpu0_STLB TOTAL        ACCESS:       9940 HIT:       6613 MISS:       3327
cpu0_STLB LOAD         ACCESS:       9940 HIT:       6613 MISS:       3327
cpu0_STLB RFO          ACCESS:          0 HIT:          0 MISS:          0
cpu0_STLB PREFETCH     ACCESS:          0 HIT:          0 MISS:          0
cpu0_STLB WRITE        ACCESS:          0 HIT:          0 MISS:          0
cpu0_STLB TRANSLATION  ACCESS:          0 HIT:          0 MISS:          0
cpu0_STLB PREFETCH REQUESTED:          0 ISSUED:          0 USEFUL:          0 USELESS:          0
cpu0_STLB AVERAGE MISS LATENCY: 119.6 cycles

DRAM Statistics

Channel 0 RQ ROW_BUFFER_HIT:      39366
  ROW_BUFFER_MISS:      30650
 AVG DBUS CONGESTED CYCLE: 3.892
WQ ROW_BUFFER_HIT: Channel 0 
  ROW_BUFFER_MISS:        682
  FULL:       4953
