WARNING: physical memory size is smaller than virtual memory size.

*** ChampSim Multicore Out-of-Order Simulator ***
Warmup Instructions: 5000000
Simulation Instructions: 5000000
Number of CPUs: 1
Page size: 4096

Off-chip DRAM Size: 4 GiB Channels: 1 Width: 64-bit Data Race: 800 MT/s
Warmup finished CPU 0 instructions: 5000000 cycles: 1250613 cumulative IPC: 3.998 (Simulation time: 00 hr 00 min 13 sec)
Warmup complete CPU 0 instructions: 5000000 cycles: 1250613 cumulative IPC: 3.998 (Simulation time: 00 hr 00 min 13 sec)
Heartbeat CPU 0 instructions: 10000001 cycles: 2761204 heartbeat IPC: 3.622 cumulative IPC: 3.31 (Simulation time: 00 hr 00 min 29 sec)
Simulation finished CPU 0 instructions: 5000001 cycles: 1510592 cumulative IPC: 3.31 (Simulation time: 00 hr 00 min 29 sec)
Simulation complete CPU 0 instructions: 5000001 cycles: 1510592 cumulative IPC: 3.31 (Simulation time: 00 hr 00 min 29 sec)

ChampSim completed all CPUs

=== Simulation ===
CPU 0 runs /scratch/cluster/hill/traces/spec2006/hmmer_7B.trace.xz
Region of Interest Statistics

CPU 0 cumulative IPC: 3.31 instructions: 5000001 cycles: 1510592
CPU 0 Branch Prediction Accuracy: 99.35% MPKI: 0.243 Average ROB Occupancy at Mispredict: 289.8
Branch type MPKI
BRANCH_DIRECT_JUMP: 0
BRANCH_INDIRECT: 0
BRANCH_CONDITIONAL: 0.243
BRANCH_DIRECT_CALL: 0
BRANCH_INDIRECT_CALL: 0
BRANCH_RETURN: 0

LLC TOTAL        ACCESS:      30592 HIT:      15205 MISS:      15387
LLC LOAD         ACCESS:        979 HIT:        877 MISS:        102
LLC RFO          ACCESS:      15361 HIT:         76 MISS:      15285
LLC PREFETCH     ACCESS:          0 HIT:          0 MISS:          0
LLC WRITE        ACCESS:      14251 HIT:      14251 MISS:          0
LLC TRANSLATION  ACCESS:          1 HIT:          1 MISS:          0
LLC PREFETCH REQUESTED:          0 ISSUED:          0 USEFUL:          0 USELESS:          0
LLC AVERAGE MISS LATENCY: 584.2 cycles
cpu0_DTLB TOTAL        ACCESS:    1207437 HIT:    1204865 MISS:       2572
cpu0_DTLB LOAD         ACCESS:    1207437 HIT:    1204865 MISS:       2572
cpu0_DTLB RFO          ACCESS:          0 HIT:          0 MISS:          0
cpu0_DTLB PREFETCH     ACCESS:          0 HIT:          0 MISS:          0
cpu0_DTLB WRITE        ACCESS:          0 HIT:          0 MISS:          0
cpu0_DTLB TRANSLATION  ACCESS:          0 HIT:          0 MISS:          0
cpu0_DTLB PREFETCH REQUESTED:          0 ISSUED:          0 USEFUL:          0 USELESS:          0
cpu0_DTLB AVERAGE MISS LATENCY: 17.86 cycles
cpu0_ITLB TOTAL        ACCESS:          0 HIT:          0 MISS:          0
cpu0_ITLB LOAD         ACCESS:          0 HIT:          0 MISS:          0
cpu0_ITLB RFO          ACCESS:          0 HIT:          0 MISS:          0
cpu0_ITLB PREFETCH     ACCESS:          0 HIT:          0 MISS:          0
cpu0_ITLB WRITE        ACCESS:          0 HIT:          0 MISS:          0
cpu0_ITLB TRANSLATION  ACCESS:          0 HIT:          0 MISS:          0
cpu0_ITLB PREFETCH REQUESTED:          0 ISSUED:          0 USEFUL:          0 USELESS:          0
cpu0_ITLB AVERAGE MISS LATENCY: -nan cycles
cpu0_L1D TOTAL        ACCESS:    1719730 HIT:    1018056 MISS:     701674
cpu0_L1D LOAD         ACCESS:     946273 HIT:     931230 MISS:      15043
cpu0_L1D RFO          ACCESS:          0 HIT:          0 MISS:          0
cpu0_L1D PREFETCH     ACCESS:          0 HIT:          0 MISS:          0
cpu0_L1D WRITE        ACCESS:     773216 HIT:      86798 MISS:     686418
cpu0_L1D TRANSLATION  ACCESS:        241 HIT:         28 MISS:        213
cpu0_L1D PREFETCH REQUESTED:          0 ISSUED:          0 USEFUL:          0 USELESS:          0
cpu0_L1D AVERAGE MISS LATENCY: 8.487 cycles
cpu0_L1I TOTAL        ACCESS:          0 HIT:          0 MISS:          0
cpu0_L1I LOAD         ACCESS:          0 HIT:          0 MISS:          0
cpu0_L1I RFO          ACCESS:          0 HIT:          0 MISS:          0
cpu0_L1I PREFETCH     ACCESS:          0 HIT:          0 MISS:          0
cpu0_L1I WRITE        ACCESS:          0 HIT:          0 MISS:          0
cpu0_L1I TRANSLATION  ACCESS:          0 HIT:          0 MISS:          0
cpu0_L1I PREFETCH REQUESTED:          0 ISSUED:          0 USEFUL:          0 USELESS:          0
cpu0_L1I AVERAGE MISS LATENCY: -nan cycles
cpu0_L2C TOTAL        ACCESS:      42505 HIT:      26164 MISS:      16341
cpu0_L2C LOAD         ACCESS:      11798 HIT:      10819 MISS:        979
cpu0_L2C RFO          ACCESS:      15370 HIT:          9 MISS:      15361
cpu0_L2C PREFETCH     ACCESS:          0 HIT:          0 MISS:          0
cpu0_L2C WRITE        ACCESS:      15124 HIT:      15124 MISS:          0
cpu0_L2C TRANSLATION  ACCESS:        213 HIT:        212 MISS:          1
cpu0_L2C PREFETCH REQUESTED:          0 ISSUED:          0 USEFUL:          0 USELESS:          0
cpu0_L2C AVERAGE MISS LATENCY: 571 cycles
cpu0_STLB TOTAL        ACCESS:        964 HIT:        723 MISS:        241
cpu0_STLB LOAD         ACCESS:        964 HIT:        723 MISS:        241
cpu0_STLB RFO          ACCESS:          0 HIT:          0 MISS:          0
cpu0_STLB PREFETCH     ACCESS:          0 HIT:          0 MISS:          0
cpu0_STLB WRITE        ACCESS:          0 HIT:          0 MISS:          0
cpu0_STLB TRANSLATION  ACCESS:          0 HIT:          0 MISS:          0
cpu0_STLB PREFETCH REQUESTED:          0 ISSUED:          0 USEFUL:          0 USELESS:          0
cpu0_STLB AVERAGE MISS LATENCY: 216.3 cycles

DRAM Statistics

Channel 0 RQ ROW_BUFFER_HIT:      13327
  ROW_BUFFER_MISS:       2057
 AVG DBUS CONGESTED CYCLE: 3.951
WQ ROW_BUFFER_HIT: Channel 0 
  ROW_BUFFER_MISS:        215
  FULL:        866
