WARNING: physical memory size is smaller than virtual memory size.

*** ChampSim Multicore Out-of-Order Simulator ***
Warmup Instructions: 5000000
Simulation Instructions: 5000000
Number of CPUs: 1
Page size: 4096

Off-chip DRAM Size: 4 GiB Channels: 1 Width: 64-bit Data Race: 800 MT/s
Warmup finished CPU 0 instructions: 5000000 cycles: 1302167 cumulative IPC: 3.84 (Simulation time: 00 hr 00 min 31 sec)
Warmup complete CPU 0 instructions: 5000000 cycles: 1302167 cumulative IPC: 3.84 (Simulation time: 00 hr 00 min 31 sec)
Heartbeat CPU 0 instructions: 10000003 cycles: 26391041 heartbeat IPC: 0.3789 cumulative IPC: 0.1993 (Simulation time: 00 hr 05 min 39 sec)
Simulation finished CPU 0 instructions: 5000003 cycles: 25088875 cumulative IPC: 0.1993 (Simulation time: 00 hr 05 min 39 sec)
Simulation complete CPU 0 instructions: 5000003 cycles: 25088875 cumulative IPC: 0.1993 (Simulation time: 00 hr 05 min 39 sec)

ChampSim completed all CPUs

=== Simulation ===
CPU 0 runs /scratch/cluster/hill/traces/spec2006/lbm_94B.trace.xz
Region of Interest Statistics

CPU 0 cumulative IPC: 0.1993 instructions: 5000003 cycles: 25088875
CPU 0 Branch Prediction Accuracy: 98.79% MPKI: 0.1508 Average ROB Occupancy at Mispredict: 267.6
Branch type MPKI
BRANCH_DIRECT_JUMP: 0
BRANCH_INDIRECT: 0
BRANCH_CONDITIONAL: 0.151
BRANCH_DIRECT_CALL: 0
BRANCH_INDIRECT_CALL: 0
BRANCH_RETURN: 0

LLC TOTAL        ACCESS:     306622 HIT:     134246 MISS:     172376
LLC LOAD         ACCESS:      43099 HIT:          6 MISS:      43093
LLC RFO          ACCESS:     131340 HIT:       2078 MISS:     129262
LLC PREFETCH     ACCESS:          0 HIT:          0 MISS:          0
LLC WRITE        ACCESS:     132115 HIT:     132110 MISS:          5
LLC TRANSLATION  ACCESS:         68 HIT:         52 MISS:         16
LLC PREFETCH REQUESTED:          0 ISSUED:          0 USEFUL:          0 USELESS:          0
LLC AVERAGE MISS LATENCY: 1882 cycles
cpu0_DTLB TOTAL        ACCESS:     869017 HIT:     865425 MISS:       3592
cpu0_DTLB LOAD         ACCESS:     869017 HIT:     865425 MISS:       3592
cpu0_DTLB RFO          ACCESS:          0 HIT:          0 MISS:          0
cpu0_DTLB PREFETCH     ACCESS:          0 HIT:          0 MISS:          0
cpu0_DTLB WRITE        ACCESS:          0 HIT:          0 MISS:          0
cpu0_DTLB TRANSLATION  ACCESS:          0 HIT:          0 MISS:          0
cpu0_DTLB PREFETCH REQUESTED:          0 ISSUED:          0 USEFUL:          0 USELESS:          0
cpu0_DTLB AVERAGE MISS LATENCY: 243.2 cycles
cpu0_ITLB TOTAL        ACCESS:          0 HIT:          0 MISS:          0
cpu0_ITLB LOAD         ACCESS:          0 HIT:          0 MISS:          0
cpu0_ITLB RFO          ACCESS:          0 HIT:          0 MISS:          0
cpu0_ITLB PREFETCH     ACCESS:          0 HIT:          0 MISS:          0
cpu0_ITLB WRITE        ACCESS:          0 HIT:          0 MISS:          0
cpu0_ITLB TRANSLATION  ACCESS:          0 HIT:          0 MISS:          0
cpu0_ITLB PREFETCH REQUESTED:          0 ISSUED:          0 USEFUL:          0 USELESS:          0
cpu0_ITLB AVERAGE MISS LATENCY: -nan cycles
cpu0_L1D TOTAL        ACCESS:    1044451 HIT:     500412 MISS:     544039
cpu0_L1D LOAD         ACCESS:     493074 HIT:     199306 MISS:     293768
cpu0_L1D RFO          ACCESS:          0 HIT:          0 MISS:          0
cpu0_L1D PREFETCH     ACCESS:          0 HIT:          0 MISS:          0
cpu0_L1D WRITE        ACCESS:     548680 HIT:     300823 MISS:     247857
cpu0_L1D TRANSLATION  ACCESS:       2697 HIT:        283 MISS:       2414
cpu0_L1D PREFETCH REQUESTED:          0 ISSUED:          0 USEFUL:          0 USELESS:          0
cpu0_L1D AVERAGE MISS LATENCY: 551.2 cycles
cpu0_L1I TOTAL        ACCESS:          0 HIT:          0 MISS:          0
cpu0_L1I LOAD         ACCESS:          0 HIT:          0 MISS:          0
cpu0_L1I RFO          ACCESS:          0 HIT:          0 MISS:          0
cpu0_L1I PREFETCH     ACCESS:          0 HIT:          0 MISS:          0
cpu0_L1I WRITE        ACCESS:          0 HIT:          0 MISS:          0
cpu0_L1I TRANSLATION  ACCESS:          0 HIT:          0 MISS:          0
cpu0_L1I PREFETCH REQUESTED:          0 ISSUED:          0 USEFUL:          0 USELESS:          0
cpu0_L1I AVERAGE MISS LATENCY: -nan cycles
cpu0_L2C TOTAL        ACCESS:     531198 HIT:     356691 MISS:     174507
cpu0_L2C LOAD         ACCESS:      43260 HIT:        161 MISS:      43099
cpu0_L2C RFO          ACCESS:     242766 HIT:     111426 MISS:     131340
cpu0_L2C PREFETCH     ACCESS:          0 HIT:          0 MISS:          0
cpu0_L2C WRITE        ACCESS:     242758 HIT:     242758 MISS:          0
cpu0_L2C TRANSLATION  ACCESS:       2414 HIT:       2346 MISS:         68
cpu0_L2C PREFETCH REQUESTED:          0 ISSUED:          0 USEFUL:          0 USELESS:          0
cpu0_L2C AVERAGE MISS LATENCY: 1880 cycles
cpu0_STLB TOTAL        ACCESS:       2695 HIT:          0 MISS:       2695
cpu0_STLB LOAD         ACCESS:       2695 HIT:          0 MISS:       2695
cpu0_STLB RFO          ACCESS:          0 HIT:          0 MISS:          0
cpu0_STLB PREFETCH     ACCESS:          0 HIT:          0 MISS:          0
cpu0_STLB WRITE        ACCESS:          0 HIT:          0 MISS:          0
cpu0_STLB TRANSLATION  ACCESS:          0 HIT:          0 MISS:          0
cpu0_STLB PREFETCH REQUESTED:          0 ISSUED:          0 USEFUL:          0 USELESS:          0
cpu0_STLB AVERAGE MISS LATENCY: 349.1 cycles

DRAM Statistics

Channel 0 RQ ROW_BUFFER_HIT:      12659
  ROW_BUFFER_MISS:     159703
 AVG DBUS CONGESTED CYCLE: 3.977
WQ ROW_BUFFER_HIT: Channel 0 
  ROW_BUFFER_MISS:       8435
  FULL:     124486
