WARNING: physical memory size is smaller than virtual memory size.

*** ChampSim Multicore Out-of-Order Simulator ***
Warmup Instructions: 5000000
Simulation Instructions: 5000000
Number of CPUs: 1
Page size: 4096

Off-chip DRAM Size: 4 GiB Channels: 1 Width: 64-bit Data Race: 800 MT/s
Warmup finished CPU 0 instructions: 5000000 cycles: 1253027 cumulative IPC: 3.99 (Simulation time: 00 hr 00 min 18 sec)
Warmup complete CPU 0 instructions: 5000000 cycles: 1253027 cumulative IPC: 3.99 (Simulation time: 00 hr 00 min 18 sec)
Heartbeat CPU 0 instructions: 10000002 cycles: 5306243 heartbeat IPC: 1.885 cumulative IPC: 1.234 (Simulation time: 00 hr 01 min 08 sec)
Simulation finished CPU 0 instructions: 5000002 cycles: 4053217 cumulative IPC: 1.234 (Simulation time: 00 hr 01 min 08 sec)
Simulation complete CPU 0 instructions: 5000002 cycles: 4053217 cumulative IPC: 1.234 (Simulation time: 00 hr 01 min 08 sec)

ChampSim completed all CPUs

=== Simulation ===
CPU 0 runs /scratch/cluster/hill/traces/spec2006/bzip2_183B.trace.xz
Region of Interest Statistics

CPU 0 cumulative IPC: 1.234 instructions: 5000002 cycles: 4053217
CPU 0 Branch Prediction Accuracy: 86.1% MPKI: 24.3 Average ROB Occupancy at Mispredict: 26.43
Branch type MPKI
BRANCH_DIRECT_JUMP: 0.043
BRANCH_INDIRECT: 0
BRANCH_CONDITIONAL: 24.3
BRANCH_DIRECT_CALL: 0
BRANCH_INDIRECT_CALL: 0
BRANCH_RETURN: 0

LLC TOTAL        ACCESS:      57140 HIT:      45390 MISS:      11750
LLC LOAD         ACCESS:      24570 HIT:      18489 MISS:       6081
LLC RFO          ACCESS:      15608 HIT:       9950 MISS:       5658
LLC PREFETCH     ACCESS:          0 HIT:          0 MISS:          0
LLC WRITE        ACCESS:      16916 HIT:      16916 MISS:          0
LLC TRANSLATION  ACCESS:         46 HIT:         35 MISS:         11
LLC PREFETCH REQUESTED:          0 ISSUED:          0 USEFUL:          0 USELESS:          0
LLC AVERAGE MISS LATENCY: 613.6 cycles
cpu0_DTLB TOTAL        ACCESS:    1291881 HIT:    1265895 MISS:      25986
cpu0_DTLB LOAD         ACCESS:    1291881 HIT:    1265895 MISS:      25986
cpu0_DTLB RFO          ACCESS:          0 HIT:          0 MISS:          0
cpu0_DTLB PREFETCH     ACCESS:          0 HIT:          0 MISS:          0
cpu0_DTLB WRITE        ACCESS:          0 HIT:          0 MISS:          0
cpu0_DTLB TRANSLATION  ACCESS:          0 HIT:          0 MISS:          0
cpu0_DTLB PREFETCH REQUESTED:          0 ISSUED:          0 USEFUL:          0 USELESS:          0
cpu0_DTLB AVERAGE MISS LATENCY: 5.282 cycles
cpu0_ITLB TOTAL        ACCESS:         44 HIT:         44 MISS:          0
cpu0_ITLB LOAD         ACCESS:         44 HIT:         44 MISS:          0
cpu0_ITLB RFO          ACCESS:          0 HIT:          0 MISS:          0
cpu0_ITLB PREFETCH     ACCESS:          0 HIT:          0 MISS:          0
cpu0_ITLB WRITE        ACCESS:          0 HIT:          0 MISS:          0
cpu0_ITLB TRANSLATION  ACCESS:          0 HIT:          0 MISS:          0
cpu0_ITLB PREFETCH REQUESTED:          0 ISSUED:          0 USEFUL:          0 USELESS:          0
cpu0_ITLB AVERAGE MISS LATENCY: -nan cycles
cpu0_L1D TOTAL        ACCESS:    1673632 HIT:    1567951 MISS:     105681
cpu0_L1D LOAD         ACCESS:    1318930 HIT:    1241478 MISS:      77452
cpu0_L1D RFO          ACCESS:          0 HIT:          0 MISS:          0
cpu0_L1D PREFETCH     ACCESS:          0 HIT:          0 MISS:          0
cpu0_L1D WRITE        ACCESS:     354654 HIT:     326472 MISS:      28182
cpu0_L1D TRANSLATION  ACCESS:         48 HIT:          1 MISS:         47
cpu0_L1D PREFETCH REQUESTED:          0 ISSUED:          0 USEFUL:          0 USELESS:          0
cpu0_L1D AVERAGE MISS LATENCY: 79.35 cycles
cpu0_L1I TOTAL        ACCESS:         44 HIT:         44 MISS:          0
cpu0_L1I LOAD         ACCESS:         44 HIT:         44 MISS:          0
cpu0_L1I RFO          ACCESS:          0 HIT:          0 MISS:          0
cpu0_L1I PREFETCH     ACCESS:          0 HIT:          0 MISS:          0
cpu0_L1I WRITE        ACCESS:          0 HIT:          0 MISS:          0
cpu0_L1I TRANSLATION  ACCESS:          0 HIT:          0 MISS:          0
cpu0_L1I PREFETCH REQUESTED:          0 ISSUED:          0 USEFUL:          0 USELESS:          0
cpu0_L1I AVERAGE MISS LATENCY: -nan cycles
cpu0_L2C TOTAL        ACCESS:      89028 HIT:      48788 MISS:      40240
cpu0_L2C LOAD         ACCESS:      49699 HIT:      25129 MISS:      24570
cpu0_L2C RFO          ACCESS:      18078 HIT:       2470 MISS:      15608
cpu0_L2C PREFETCH     ACCESS:          0 HIT:          0 MISS:          0
cpu0_L2C WRITE        ACCESS:      21204 HIT:      21188 MISS:         16
cpu0_L2C TRANSLATION  ACCESS:         47 HIT:          1 MISS:         46
cpu0_L2C PREFETCH REQUESTED:          0 ISSUED:          0 USEFUL:          0 USELESS:          0
cpu0_L2C AVERAGE MISS LATENCY: 199.5 cycles
cpu0_STLB TOTAL        ACCESS:      18647 HIT:      18599 MISS:         48
cpu0_STLB LOAD         ACCESS:      18647 HIT:      18599 MISS:         48
cpu0_STLB RFO          ACCESS:          0 HIT:          0 MISS:          0
cpu0_STLB PREFETCH     ACCESS:          0 HIT:          0 MISS:          0
cpu0_STLB WRITE        ACCESS:          0 HIT:          0 MISS:          0
cpu0_STLB TRANSLATION  ACCESS:          0 HIT:          0 MISS:          0
cpu0_STLB PREFETCH REQUESTED:          0 ISSUED:          0 USEFUL:          0 USELESS:          0
cpu0_STLB AVERAGE MISS LATENCY: 334.8 cycles

DRAM Statistics

Channel 0 RQ ROW_BUFFER_HIT:       2210
  ROW_BUFFER_MISS:       9526
 AVG DBUS CONGESTED CYCLE: 3.903
WQ ROW_BUFFER_HIT: Channel 0 
  ROW_BUFFER_MISS:        145
  FULL:        626
