WARNING: physical memory size is smaller than virtual memory size.

*** ChampSim Multicore Out-of-Order Simulator ***
Warmup Instructions: 5000000
Simulation Instructions: 5000000
Number of CPUs: 1
Page size: 4096

Off-chip DRAM Size: 4 GiB Channels: 1 Width: 64-bit Data Race: 800 MT/s
Warmup finished CPU 0 instructions: 5000002 cycles: 1250089 cumulative IPC: 4 (Simulation time: 00 hr 00 min 35 sec)
Warmup complete CPU 0 instructions: 5000002 cycles: 1250089 cumulative IPC: 4 (Simulation time: 00 hr 00 min 35 sec)
Heartbeat CPU 0 instructions: 10000003 cycles: 6355255 heartbeat IPC: 1.574 cumulative IPC: 0.9794 (Simulation time: 00 hr 02 min 13 sec)
Simulation finished CPU 0 instructions: 5000001 cycles: 5105167 cumulative IPC: 0.9794 (Simulation time: 00 hr 02 min 13 sec)
Simulation complete CPU 0 instructions: 5000001 cycles: 5105167 cumulative IPC: 0.9794 (Simulation time: 00 hr 02 min 13 sec)

ChampSim completed all CPUs

=== Simulation ===
CPU 0 runs /scratch/cluster/hill/traces/spec2006/omnetpp_17B.trace.xz
Region of Interest Statistics

CPU 0 cumulative IPC: 0.9794 instructions: 5000001 cycles: 5105167
CPU 0 Branch Prediction Accuracy: 97.21% MPKI: 9.165 Average ROB Occupancy at Mispredict: 45.53
Branch type MPKI
BRANCH_DIRECT_JUMP: 0.0112
BRANCH_INDIRECT: 0.0844
BRANCH_CONDITIONAL: 9
BRANCH_DIRECT_CALL: 0.0172
BRANCH_INDIRECT_CALL: 0.0076
BRANCH_RETURN: 0.0424

LLC TOTAL        ACCESS:      72417 HIT:      22291 MISS:      50126
LLC LOAD         ACCESS:      64869 HIT:      21331 MISS:      43538
LLC RFO          ACCESS:        509 HIT:         18 MISS:        491
LLC PREFETCH     ACCESS:          0 HIT:          0 MISS:          0
LLC WRITE        ACCESS:        242 HIT:        242 MISS:          0
LLC TRANSLATION  ACCESS:       6797 HIT:        700 MISS:       6097
LLC PREFETCH REQUESTED:          0 ISSUED:          0 USEFUL:          0 USELESS:          0
LLC AVERAGE MISS LATENCY: 858.7 cycles
cpu0_DTLB TOTAL        ACCESS:     536032 HIT:     479826 MISS:      56206
cpu0_DTLB LOAD         ACCESS:     536032 HIT:     479826 MISS:      56206
cpu0_DTLB RFO          ACCESS:          0 HIT:          0 MISS:          0
cpu0_DTLB PREFETCH     ACCESS:          0 HIT:          0 MISS:          0
cpu0_DTLB WRITE        ACCESS:          0 HIT:          0 MISS:          0
cpu0_DTLB TRANSLATION  ACCESS:          0 HIT:          0 MISS:          0
cpu0_DTLB PREFETCH REQUESTED:          0 ISSUED:          0 USEFUL:          0 USELESS:          0
cpu0_DTLB AVERAGE MISS LATENCY: 201.7 cycles
cpu0_ITLB TOTAL        ACCESS:      32784 HIT:      32553 MISS:        231
cpu0_ITLB LOAD         ACCESS:      32784 HIT:      32553 MISS:        231
cpu0_ITLB RFO          ACCESS:          0 HIT:          0 MISS:          0
cpu0_ITLB PREFETCH     ACCESS:          0 HIT:          0 MISS:          0
cpu0_ITLB WRITE        ACCESS:          0 HIT:          0 MISS:          0
cpu0_ITLB TRANSLATION  ACCESS:          0 HIT:          0 MISS:          0
cpu0_ITLB PREFETCH REQUESTED:          0 ISSUED:          0 USEFUL:          0 USELESS:          0
cpu0_ITLB AVERAGE MISS LATENCY: 33.09 cycles
cpu0_L1D TOTAL        ACCESS:     633967 HIT:     534468 MISS:      99499
cpu0_L1D LOAD         ACCESS:     421422 HIT:     332140 MISS:      89282
cpu0_L1D RFO          ACCESS:          0 HIT:          0 MISS:          0
cpu0_L1D PREFETCH     ACCESS:          0 HIT:          0 MISS:          0
cpu0_L1D WRITE        ACCESS:     172794 HIT:     170330 MISS:       2464
cpu0_L1D TRANSLATION  ACCESS:      39751 HIT:      31998 MISS:       7753
cpu0_L1D PREFETCH REQUESTED:          0 ISSUED:          0 USEFUL:          0 USELESS:          0
cpu0_L1D AVERAGE MISS LATENCY: 439.2 cycles
cpu0_L1I TOTAL        ACCESS:      36404 HIT:      35900 MISS:        504
cpu0_L1I LOAD         ACCESS:      36404 HIT:      35900 MISS:        504
cpu0_L1I RFO          ACCESS:          0 HIT:          0 MISS:          0
cpu0_L1I PREFETCH     ACCESS:          0 HIT:          0 MISS:          0
cpu0_L1I WRITE        ACCESS:          0 HIT:          0 MISS:          0
cpu0_L1I TRANSLATION  ACCESS:          0 HIT:          0 MISS:          0
cpu0_L1I PREFETCH REQUESTED:          0 ISSUED:          0 USEFUL:          0 USELESS:          0
cpu0_L1I AVERAGE MISS LATENCY: 126 cycles
cpu0_L2C TOTAL        ACCESS:      75550 HIT:       3375 MISS:      72175
cpu0_L2C LOAD         ACCESS:      67163 HIT:       2294 MISS:      64869
cpu0_L2C RFO          ACCESS:        564 HIT:         55 MISS:        509
cpu0_L2C PREFETCH     ACCESS:          0 HIT:          0 MISS:          0
cpu0_L2C WRITE        ACCESS:        595 HIT:        595 MISS:          0
cpu0_L2C TRANSLATION  ACCESS:       7228 HIT:        431 MISS:       6797
cpu0_L2C PREFETCH REQUESTED:          0 ISSUED:          0 USEFUL:          0 USELESS:          0
cpu0_L2C AVERAGE MISS LATENCY: 617.1 cycles
cpu0_STLB TOTAL        ACCESS:      41294 HIT:       1882 MISS:      39412
cpu0_STLB LOAD         ACCESS:      41294 HIT:       1882 MISS:      39412
cpu0_STLB RFO          ACCESS:          0 HIT:          0 MISS:          0
cpu0_STLB PREFETCH     ACCESS:          0 HIT:          0 MISS:          0
cpu0_STLB WRITE        ACCESS:          0 HIT:          0 MISS:          0
cpu0_STLB TRANSLATION  ACCESS:          0 HIT:          0 MISS:          0
cpu0_STLB PREFETCH REQUESTED:          0 ISSUED:          0 USEFUL:          0 USELESS:          0
cpu0_STLB AVERAGE MISS LATENCY: 291.4 cycles

DRAM Statistics

Channel 0 RQ ROW_BUFFER_HIT:      19277
  ROW_BUFFER_MISS:      30844
 AVG DBUS CONGESTED CYCLE: 3.843
WQ ROW_BUFFER_HIT: Channel 0 
  ROW_BUFFER_MISS:         37
  FULL:        260
