WARNING: physical memory size is smaller than virtual memory size.

*** ChampSim Multicore Out-of-Order Simulator ***
Warmup Instructions: 5000000
Simulation Instructions: 5000000
Number of CPUs: 1
Page size: 4096

Off-chip DRAM Size: 4 GiB Channels: 1 Width: 64-bit Data Race: 800 MT/s
Warmup finished CPU 0 instructions: 5000000 cycles: 1250113 cumulative IPC: 4 (Simulation time: 00 hr 00 min 22 sec)
Warmup complete CPU 0 instructions: 5000000 cycles: 1250113 cumulative IPC: 4 (Simulation time: 00 hr 00 min 22 sec)
Heartbeat CPU 0 instructions: 10000003 cycles: 2633408 heartbeat IPC: 3.797 cumulative IPC: 3.615 (Simulation time: 00 hr 01 min 08 sec)
Simulation finished CPU 0 instructions: 5000003 cycles: 1383296 cumulative IPC: 3.615 (Simulation time: 00 hr 01 min 08 sec)
Simulation complete CPU 0 instructions: 5000003 cycles: 1383296 cumulative IPC: 3.615 (Simulation time: 00 hr 01 min 08 sec)

ChampSim completed all CPUs

=== Simulation ===
CPU 0 runs /scratch/cluster/hill/traces/spec2006/hmmer_397B.trace.xz
Region of Interest Statistics

CPU 0 cumulative IPC: 3.615 instructions: 5000003 cycles: 1383296
CPU 0 Branch Prediction Accuracy: 99.42% MPKI: 0.2156 Average ROB Occupancy at Mispredict: 313
Branch type MPKI
BRANCH_DIRECT_JUMP: 0
BRANCH_INDIRECT: 0
BRANCH_CONDITIONAL: 0.216
BRANCH_DIRECT_CALL: 0
BRANCH_INDIRECT_CALL: 0
BRANCH_RETURN: 0

LLC TOTAL        ACCESS:      31643 HIT:      16135 MISS:      15508
LLC LOAD         ACCESS:       1041 HIT:        902 MISS:        139
LLC RFO          ACCESS:      15369 HIT:          0 MISS:      15369
LLC PREFETCH     ACCESS:          0 HIT:          0 MISS:          0
LLC WRITE        ACCESS:      15231 HIT:      15231 MISS:          0
LLC TRANSLATION  ACCESS:          2 HIT:          2 MISS:          0
LLC PREFETCH REQUESTED:          0 ISSUED:          0 USEFUL:          0 USELESS:          0
LLC AVERAGE MISS LATENCY: 354.8 cycles
cpu0_DTLB TOTAL        ACCESS:    1231714 HIT:    1230619 MISS:       1095
cpu0_DTLB LOAD         ACCESS:    1231714 HIT:    1230619 MISS:       1095
cpu0_DTLB RFO          ACCESS:          0 HIT:          0 MISS:          0
cpu0_DTLB PREFETCH     ACCESS:          0 HIT:          0 MISS:          0
cpu0_DTLB WRITE        ACCESS:          0 HIT:          0 MISS:          0
cpu0_DTLB TRANSLATION  ACCESS:          0 HIT:          0 MISS:          0
cpu0_DTLB PREFETCH REQUESTED:          0 ISSUED:          0 USEFUL:          0 USELESS:          0
cpu0_DTLB AVERAGE MISS LATENCY: 37.59 cycles
cpu0_ITLB TOTAL        ACCESS:          0 HIT:          0 MISS:          0
cpu0_ITLB LOAD         ACCESS:          0 HIT:          0 MISS:          0
cpu0_ITLB RFO          ACCESS:          0 HIT:          0 MISS:          0
cpu0_ITLB PREFETCH     ACCESS:          0 HIT:          0 MISS:          0
cpu0_ITLB WRITE        ACCESS:          0 HIT:          0 MISS:          0
cpu0_ITLB TRANSLATION  ACCESS:          0 HIT:          0 MISS:          0
cpu0_ITLB PREFETCH REQUESTED:          0 ISSUED:          0 USEFUL:          0 USELESS:          0
cpu0_ITLB AVERAGE MISS LATENCY: -nan cycles
cpu0_L1D TOTAL        ACCESS:    1752812 HIT:    1054899 MISS:     697913
cpu0_L1D LOAD         ACCESS:     966780 HIT:     953460 MISS:      13320
cpu0_L1D RFO          ACCESS:          0 HIT:          0 MISS:          0
cpu0_L1D PREFETCH     ACCESS:          0 HIT:          0 MISS:          0
cpu0_L1D WRITE        ACCESS:     785789 HIT:     101395 MISS:     684394
cpu0_L1D TRANSLATION  ACCESS:        243 HIT:         44 MISS:        199
cpu0_L1D PREFETCH REQUESTED:          0 ISSUED:          0 USEFUL:          0 USELESS:          0
cpu0_L1D AVERAGE MISS LATENCY: 4.155 cycles
cpu0_L1I TOTAL        ACCESS:          0 HIT:          0 MISS:          0
cpu0_L1I LOAD         ACCESS:          0 HIT:          0 MISS:          0
cpu0_L1I RFO          ACCESS:          0 HIT:          0 MISS:          0
cpu0_L1I PREFETCH     ACCESS:          0 HIT:          0 MISS:          0
cpu0_L1I WRITE        ACCESS:          0 HIT:          0 MISS:          0
cpu0_L1I TRANSLATION  ACCESS:          0 HIT:          0 MISS:          0
cpu0_L1I PREFETCH REQUESTED:          0 ISSUED:          0 USEFUL:          0 USELESS:          0
cpu0_L1I AVERAGE MISS LATENCY: -nan cycles
cpu0_L2C TOTAL        ACCESS:      42052 HIT:      25640 MISS:      16412
cpu0_L2C LOAD         ACCESS:      11156 HIT:      10115 MISS:       1041
cpu0_L2C RFO          ACCESS:      15369 HIT:          0 MISS:      15369
cpu0_L2C PREFETCH     ACCESS:          0 HIT:          0 MISS:          0
cpu0_L2C WRITE        ACCESS:      15328 HIT:      15328 MISS:          0
cpu0_L2C TRANSLATION  ACCESS:        199 HIT:        197 MISS:          2
cpu0_L2C PREFETCH REQUESTED:          0 ISSUED:          0 USEFUL:          0 USELESS:          0
cpu0_L2C AVERAGE MISS LATENCY: 356.2 cycles
cpu0_STLB TOTAL        ACCESS:        259 HIT:         16 MISS:        243
cpu0_STLB LOAD         ACCESS:        259 HIT:         16 MISS:        243
cpu0_STLB RFO          ACCESS:          0 HIT:          0 MISS:          0
cpu0_STLB PREFETCH     ACCESS:          0 HIT:          0 MISS:          0
cpu0_STLB WRITE        ACCESS:          0 HIT:          0 MISS:          0
cpu0_STLB TRANSLATION  ACCESS:          0 HIT:          0 MISS:          0
cpu0_STLB PREFETCH REQUESTED:          0 ISSUED:          0 USEFUL:          0 USELESS:          0
cpu0_STLB AVERAGE MISS LATENCY: 215.5 cycles

DRAM Statistics

Channel 0 RQ ROW_BUFFER_HIT:      13933
  ROW_BUFFER_MISS:       1560
 AVG DBUS CONGESTED CYCLE: 3.981
WQ ROW_BUFFER_HIT: Channel 0 
  ROW_BUFFER_MISS:         18
  FULL:         50
