WARNING: physical memory size is smaller than virtual memory size.

*** ChampSim Multicore Out-of-Order Simulator ***
Warmup Instructions: 1000000
Simulation Instructions: 1000000
Number of CPUs: 1
Page size: 4096

Off-chip DRAM Size: 4 GiB Channels: 1 Width: 64-bit Data Race: 800 MT/s
Warmup finished CPU 0 instructions: 1000000 cycles: 250148 cumulative IPC: 3.998 (Simulation time: 00 hr 00 min 09 sec)
Warmup complete CPU 0 instructions: 1000000 cycles: 250148 cumulative IPC: 3.998 (Simulation time: 00 hr 00 min 09 sec)
Simulation finished CPU 0 instructions: 1000000 cycles: 821552 cumulative IPC: 1.217 (Simulation time: 00 hr 00 min 20 sec)
Simulation complete CPU 0 instructions: 1000000 cycles: 821552 cumulative IPC: 1.217 (Simulation time: 00 hr 00 min 20 sec)

ChampSim completed all CPUs

=== Simulation ===
CPU 0 runs /scratch/cluster/hill/traces/spec2006/xalancbmk_748B.trace.xz
Region of Interest Statistics

CPU 0 cumulative IPC: 1.217 instructions: 1000000 cycles: 821552
CPU 0 Branch Prediction Accuracy: 94.49% MPKI: 13.95 Average ROB Occupancy at Mispredict: 55.55
Branch type MPKI
BRANCH_DIRECT_JUMP: 0.004
BRANCH_INDIRECT: 0.678
BRANCH_CONDITIONAL: 7.83
BRANCH_DIRECT_CALL: 0.17
BRANCH_INDIRECT_CALL: 0.927
BRANCH_RETURN: 4.34

LLC TOTAL        ACCESS:       5658 HIT:       2307 MISS:       3351
LLC LOAD         ACCESS:        816 HIT:         33 MISS:        783
LLC RFO          ACCESS:       2128 HIT:          0 MISS:       2128
LLC PREFETCH     ACCESS:          0 HIT:          0 MISS:          0
LLC WRITE        ACCESS:       2265 HIT:       2265 MISS:          0
LLC TRANSLATION  ACCESS:        449 HIT:          9 MISS:        440
LLC PREFETCH REQUESTED:          0 ISSUED:          0 USEFUL:          0 USELESS:          0
LLC AVERAGE MISS LATENCY: 216.7 cycles
cpu0_DTLB TOTAL        ACCESS:     283042 HIT:     267541 MISS:      15501
cpu0_DTLB LOAD         ACCESS:     283042 HIT:     267541 MISS:      15501
cpu0_DTLB RFO          ACCESS:          0 HIT:          0 MISS:          0
cpu0_DTLB PREFETCH     ACCESS:          0 HIT:          0 MISS:          0
cpu0_DTLB WRITE        ACCESS:          0 HIT:          0 MISS:          0
cpu0_DTLB TRANSLATION  ACCESS:          0 HIT:          0 MISS:          0
cpu0_DTLB PREFETCH REQUESTED:          0 ISSUED:          0 USEFUL:          0 USELESS:          0
cpu0_DTLB AVERAGE MISS LATENCY: 19.25 cycles
cpu0_ITLB TOTAL        ACCESS:      94891 HIT:      90609 MISS:       4282
cpu0_ITLB LOAD         ACCESS:      94891 HIT:      90609 MISS:       4282
cpu0_ITLB RFO          ACCESS:          0 HIT:          0 MISS:          0
cpu0_ITLB PREFETCH     ACCESS:          0 HIT:          0 MISS:          0
cpu0_ITLB WRITE        ACCESS:          0 HIT:          0 MISS:          0
cpu0_ITLB TRANSLATION  ACCESS:          0 HIT:          0 MISS:          0
cpu0_ITLB PREFETCH REQUESTED:          0 ISSUED:          0 USEFUL:          0 USELESS:          0
cpu0_ITLB AVERAGE MISS LATENCY: 2.864 cycles
cpu0_L1D TOTAL        ACCESS:     362885 HIT:     340752 MISS:      22133
cpu0_L1D LOAD         ACCESS:     200227 HIT:     189097 MISS:      11130
cpu0_L1D RFO          ACCESS:          0 HIT:          0 MISS:          0
cpu0_L1D PREFETCH     ACCESS:          0 HIT:          0 MISS:          0
cpu0_L1D WRITE        ACCESS:     161937 HIT:     151621 MISS:      10316
cpu0_L1D TRANSLATION  ACCESS:        721 HIT:         34 MISS:        687
cpu0_L1D PREFETCH REQUESTED:          0 ISSUED:          0 USEFUL:          0 USELESS:          0
cpu0_L1D AVERAGE MISS LATENCY: 36.94 cycles
cpu0_L1I TOTAL        ACCESS:     104085 HIT:     101579 MISS:       2506
cpu0_L1I LOAD         ACCESS:     104085 HIT:     101579 MISS:       2506
cpu0_L1I RFO          ACCESS:          0 HIT:          0 MISS:          0
cpu0_L1I PREFETCH     ACCESS:          0 HIT:          0 MISS:          0
cpu0_L1I WRITE        ACCESS:          0 HIT:          0 MISS:          0
cpu0_L1I TRANSLATION  ACCESS:          0 HIT:          0 MISS:          0
cpu0_L1I PREFETCH REQUESTED:          0 ISSUED:          0 USEFUL:          0 USELESS:          0
cpu0_L1I AVERAGE MISS LATENCY: 7.082 cycles
cpu0_L2C TOTAL        ACCESS:      13444 HIT:      10043 MISS:       3401
cpu0_L2C LOAD         ACCESS:       7354 HIT:       6538 MISS:        816
cpu0_L2C RFO          ACCESS:       2269 HIT:        141 MISS:       2128
cpu0_L2C PREFETCH     ACCESS:          0 HIT:          0 MISS:          0
cpu0_L2C WRITE        ACCESS:       3137 HIT:       3129 MISS:          8
cpu0_L2C TRANSLATION  ACCESS:        684 HIT:        235 MISS:        449
cpu0_L2C PREFETCH REQUESTED:          0 ISSUED:          0 USEFUL:          0 USELESS:          0
cpu0_L2C AVERAGE MISS LATENCY: 234.5 cycles
cpu0_STLB TOTAL        ACCESS:      10841 HIT:      10398 MISS:        443
cpu0_STLB LOAD         ACCESS:      10841 HIT:      10398 MISS:        443
cpu0_STLB RFO          ACCESS:          0 HIT:          0 MISS:          0
cpu0_STLB PREFETCH     ACCESS:          0 HIT:          0 MISS:          0
cpu0_STLB WRITE        ACCESS:          0 HIT:          0 MISS:          0
cpu0_STLB TRANSLATION  ACCESS:          0 HIT:          0 MISS:          0
cpu0_STLB PREFETCH REQUESTED:          0 ISSUED:          0 USEFUL:          0 USELESS:          0
cpu0_STLB AVERAGE MISS LATENCY: 560.6 cycles

DRAM Statistics

Channel 0 RQ ROW_BUFFER_HIT:       1232
  ROW_BUFFER_MISS:       2116
 AVG DBUS CONGESTED CYCLE: 3.912
WQ ROW_BUFFER_HIT: Channel 0 
  ROW_BUFFER_MISS:          0
  FULL:          0
