WARNING: physical memory size is smaller than virtual memory size.

*** ChampSim Multicore Out-of-Order Simulator ***
Warmup Instructions: 1000000
Simulation Instructions: 1000000
Number of CPUs: 1
Page size: 4096

Off-chip DRAM Size: 4 GiB Channels: 1 Width: 64-bit Data Race: 800 MT/s
Warmup finished CPU 0 instructions: 1000003 cycles: 250446 cumulative IPC: 3.993 (Simulation time: 00 hr 00 min 07 sec)
Warmup complete CPU 0 instructions: 1000003 cycles: 250446 cumulative IPC: 3.993 (Simulation time: 00 hr 00 min 07 sec)
Simulation finished CPU 0 instructions: 1000001 cycles: 798212 cumulative IPC: 1.253 (Simulation time: 00 hr 00 min 20 sec)
Simulation complete CPU 0 instructions: 1000001 cycles: 798212 cumulative IPC: 1.253 (Simulation time: 00 hr 00 min 20 sec)

ChampSim completed all CPUs

=== Simulation ===
CPU 0 runs /scratch/cluster/hill/traces/spec2006/cactusADM_1039B.trace.xz
Region of Interest Statistics

CPU 0 cumulative IPC: 1.253 instructions: 1000001 cycles: 798212
CPU 0 Branch Prediction Accuracy: 99.83% MPKI: 0.002 Average ROB Occupancy at Mispredict: 352
Branch type MPKI
BRANCH_DIRECT_JUMP: 0
BRANCH_INDIRECT: 0
BRANCH_CONDITIONAL: 0.002
BRANCH_DIRECT_CALL: 0
BRANCH_INDIRECT_CALL: 0
BRANCH_RETURN: 0

LLC TOTAL        ACCESS:       6531 HIT:        835 MISS:       5696
LLC LOAD         ACCESS:       4684 HIT:          0 MISS:       4684
LLC RFO          ACCESS:        852 HIT:          0 MISS:        852
LLC PREFETCH     ACCESS:          0 HIT:          0 MISS:          0
LLC WRITE        ACCESS:        832 HIT:        832 MISS:          0
LLC TRANSLATION  ACCESS:        163 HIT:          3 MISS:        160
LLC PREFETCH REQUESTED:          0 ISSUED:          0 USEFUL:          0 USELESS:          0
LLC AVERAGE MISS LATENCY: 431.9 cycles
cpu0_DTLB TOTAL        ACCESS:     235529 HIT:     218628 MISS:      16901
cpu0_DTLB LOAD         ACCESS:     235529 HIT:     218628 MISS:      16901
cpu0_DTLB RFO          ACCESS:          0 HIT:          0 MISS:          0
cpu0_DTLB PREFETCH     ACCESS:          0 HIT:          0 MISS:          0
cpu0_DTLB WRITE        ACCESS:          0 HIT:          0 MISS:          0
cpu0_DTLB TRANSLATION  ACCESS:          0 HIT:          0 MISS:          0
cpu0_DTLB PREFETCH REQUESTED:          0 ISSUED:          0 USEFUL:          0 USELESS:          0
cpu0_DTLB AVERAGE MISS LATENCY: 16.8 cycles
cpu0_ITLB TOTAL        ACCESS:     151669 HIT:     151669 MISS:          0
cpu0_ITLB LOAD         ACCESS:     151669 HIT:     151669 MISS:          0
cpu0_ITLB RFO          ACCESS:          0 HIT:          0 MISS:          0
cpu0_ITLB PREFETCH     ACCESS:          0 HIT:          0 MISS:          0
cpu0_ITLB WRITE        ACCESS:          0 HIT:          0 MISS:          0
cpu0_ITLB TRANSLATION  ACCESS:          0 HIT:          0 MISS:          0
cpu0_ITLB PREFETCH REQUESTED:          0 ISSUED:          0 USEFUL:          0 USELESS:          0
cpu0_ITLB AVERAGE MISS LATENCY: -nan cycles
cpu0_L1D TOTAL        ACCESS:     360815 HIT:     343207 MISS:      17608
cpu0_L1D LOAD         ACCESS:     246113 HIT:     234152 MISS:      11961
cpu0_L1D RFO          ACCESS:          0 HIT:          0 MISS:          0
cpu0_L1D PREFETCH     ACCESS:          0 HIT:          0 MISS:          0
cpu0_L1D WRITE        ACCESS:     106106 HIT:     104914 MISS:       1192
cpu0_L1D TRANSLATION  ACCESS:       8596 HIT:       4141 MISS:       4455
cpu0_L1D PREFETCH REQUESTED:          0 ISSUED:          0 USEFUL:          0 USELESS:          0
cpu0_L1D AVERAGE MISS LATENCY: 153.2 cycles
cpu0_L1I TOTAL        ACCESS:     197381 HIT:     197381 MISS:          0
cpu0_L1I LOAD         ACCESS:     197381 HIT:     197381 MISS:          0
cpu0_L1I RFO          ACCESS:          0 HIT:          0 MISS:          0
cpu0_L1I PREFETCH     ACCESS:          0 HIT:          0 MISS:          0
cpu0_L1I WRITE        ACCESS:          0 HIT:          0 MISS:          0
cpu0_L1I TRANSLATION  ACCESS:          0 HIT:          0 MISS:          0
cpu0_L1I PREFETCH REQUESTED:          0 ISSUED:          0 USEFUL:          0 USELESS:          0
cpu0_L1I AVERAGE MISS LATENCY: -nan cycles
cpu0_L2C TOTAL        ACCESS:      16639 HIT:      10939 MISS:       5700
cpu0_L2C LOAD         ACCESS:      10280 HIT:       5596 MISS:       4684
cpu0_L2C RFO          ACCESS:        930 HIT:         78 MISS:        852
cpu0_L2C PREFETCH     ACCESS:          0 HIT:          0 MISS:          0
cpu0_L2C WRITE        ACCESS:        974 HIT:        973 MISS:          1
cpu0_L2C TRANSLATION  ACCESS:       4455 HIT:       4292 MISS:        163
cpu0_L2C PREFETCH REQUESTED:          0 ISSUED:          0 USEFUL:          0 USELESS:          0
cpu0_L2C AVERAGE MISS LATENCY: 452.6 cycles
cpu0_STLB TOTAL        ACCESS:      12454 HIT:       7914 MISS:       4540
cpu0_STLB LOAD         ACCESS:      12454 HIT:       7914 MISS:       4540
cpu0_STLB RFO          ACCESS:          0 HIT:          0 MISS:          0
cpu0_STLB PREFETCH     ACCESS:          0 HIT:          0 MISS:          0
cpu0_STLB WRITE        ACCESS:          0 HIT:          0 MISS:          0
cpu0_STLB TRANSLATION  ACCESS:          0 HIT:          0 MISS:          0
cpu0_STLB PREFETCH REQUESTED:          0 ISSUED:          0 USEFUL:          0 USELESS:          0
cpu0_STLB AVERAGE MISS LATENCY: 43.2 cycles

DRAM Statistics

Channel 0 RQ ROW_BUFFER_HIT:       1129
  ROW_BUFFER_MISS:       4567
 AVG DBUS CONGESTED CYCLE: 3.812
WQ ROW_BUFFER_HIT: Channel 0 
  ROW_BUFFER_MISS:          0
  FULL:          0
