WARNING: physical memory size is smaller than virtual memory size.

*** ChampSim Multicore Out-of-Order Simulator ***
Warmup Instructions: 1000000
Simulation Instructions: 1000000
Number of CPUs: 1
Page size: 4096

Off-chip DRAM Size: 4 GiB Channels: 1 Width: 64-bit Data Race: 800 MT/s
Warmup finished CPU 0 instructions: 1000000 cycles: 250070 cumulative IPC: 3.999 (Simulation time: 00 hr 00 min 06 sec)
Warmup complete CPU 0 instructions: 1000000 cycles: 250070 cumulative IPC: 3.999 (Simulation time: 00 hr 00 min 06 sec)
Simulation finished CPU 0 instructions: 1000001 cycles: 1068537 cumulative IPC: 0.9359 (Simulation time: 00 hr 00 min 20 sec)
Simulation complete CPU 0 instructions: 1000001 cycles: 1068537 cumulative IPC: 0.9359 (Simulation time: 00 hr 00 min 20 sec)

ChampSim completed all CPUs

=== Simulation ===
CPU 0 runs /scratch/cluster/hill/traces/spec2006/sphinx3_1339B.trace.xz
Region of Interest Statistics

CPU 0 cumulative IPC: 0.9359 instructions: 1000001 cycles: 1068537
CPU 0 Branch Prediction Accuracy: 97.52% MPKI: 1.613 Average ROB Occupancy at Mispredict: 116.9
Branch type MPKI
BRANCH_DIRECT_JUMP: 0.147
BRANCH_INDIRECT: 0
BRANCH_CONDITIONAL: 1.42
BRANCH_DIRECT_CALL: 0.006
BRANCH_INDIRECT_CALL: 0
BRANCH_RETURN: 0.038

LLC TOTAL        ACCESS:      15265 HIT:       1172 MISS:      14093
LLC LOAD         ACCESS:      14152 HIT:        737 MISS:      13415
LLC RFO          ACCESS:        475 HIT:          0 MISS:        475
LLC PREFETCH     ACCESS:          0 HIT:          0 MISS:          0
LLC WRITE        ACCESS:        423 HIT:        423 MISS:          0
LLC TRANSLATION  ACCESS:        215 HIT:         12 MISS:        203
LLC PREFETCH REQUESTED:          0 ISSUED:          0 USEFUL:          0 USELESS:          0
LLC AVERAGE MISS LATENCY: 288.6 cycles
cpu0_DTLB TOTAL        ACCESS:     198019 HIT:     193731 MISS:       4288
cpu0_DTLB LOAD         ACCESS:     198019 HIT:     193731 MISS:       4288
cpu0_DTLB RFO          ACCESS:          0 HIT:          0 MISS:          0
cpu0_DTLB PREFETCH     ACCESS:          0 HIT:          0 MISS:          0
cpu0_DTLB WRITE        ACCESS:          0 HIT:          0 MISS:          0
cpu0_DTLB TRANSLATION  ACCESS:          0 HIT:          0 MISS:          0
cpu0_DTLB PREFETCH REQUESTED:          0 ISSUED:          0 USEFUL:          0 USELESS:          0
cpu0_DTLB AVERAGE MISS LATENCY: 31.7 cycles
cpu0_ITLB TOTAL        ACCESS:         44 HIT:         38 MISS:          6
cpu0_ITLB LOAD         ACCESS:         44 HIT:         38 MISS:          6
cpu0_ITLB RFO          ACCESS:          0 HIT:          0 MISS:          0
cpu0_ITLB PREFETCH     ACCESS:          0 HIT:          0 MISS:          0
cpu0_ITLB WRITE        ACCESS:          0 HIT:          0 MISS:          0
cpu0_ITLB TRANSLATION  ACCESS:          0 HIT:          0 MISS:          0
cpu0_ITLB PREFETCH REQUESTED:          0 ISSUED:          0 USEFUL:          0 USELESS:          0
cpu0_ITLB AVERAGE MISS LATENCY: 308.2 cycles
cpu0_L1D TOTAL        ACCESS:     236786 HIT:      81543 MISS:     155243
cpu0_L1D LOAD         ACCESS:     222167 HIT:      69382 MISS:     152785
cpu0_L1D RFO          ACCESS:          0 HIT:          0 MISS:          0
cpu0_L1D PREFETCH     ACCESS:          0 HIT:          0 MISS:          0
cpu0_L1D WRITE        ACCESS:      14069 HIT:      11938 MISS:       2131
cpu0_L1D TRANSLATION  ACCESS:        550 HIT:        223 MISS:        327
cpu0_L1D PREFETCH REQUESTED:          0 ISSUED:          0 USEFUL:          0 USELESS:          0
cpu0_L1D AVERAGE MISS LATENCY: 11.91 cycles
cpu0_L1I TOTAL        ACCESS:         52 HIT:         15 MISS:         37
cpu0_L1I LOAD         ACCESS:         52 HIT:         15 MISS:         37
cpu0_L1I RFO          ACCESS:          0 HIT:          0 MISS:          0
cpu0_L1I PREFETCH     ACCESS:          0 HIT:          0 MISS:          0
cpu0_L1I WRITE        ACCESS:          0 HIT:          0 MISS:          0
cpu0_L1I TRANSLATION  ACCESS:          0 HIT:          0 MISS:          0
cpu0_L1I PREFETCH REQUESTED:          0 ISSUED:          0 USEFUL:          0 USELESS:          0
cpu0_L1I AVERAGE MISS LATENCY: 183.6 cycles
cpu0_L2C TOTAL        ACCESS:      16827 HIT:       1983 MISS:      14844
cpu0_L2C LOAD         ACCESS:      15547 HIT:       1395 MISS:      14152
cpu0_L2C RFO          ACCESS:        477 HIT:          2 MISS:        475
cpu0_L2C PREFETCH     ACCESS:          0 HIT:          0 MISS:          0
cpu0_L2C WRITE        ACCESS:        491 HIT:        489 MISS:          2
cpu0_L2C TRANSLATION  ACCESS:        312 HIT:         97 MISS:        215
cpu0_L2C PREFETCH REQUESTED:          0 ISSUED:          0 USEFUL:          0 USELESS:          0
cpu0_L2C AVERAGE MISS LATENCY: 295 cycles
cpu0_STLB TOTAL        ACCESS:       1092 HIT:        552 MISS:        540
cpu0_STLB LOAD         ACCESS:       1092 HIT:        552 MISS:        540
cpu0_STLB RFO          ACCESS:          0 HIT:          0 MISS:          0
cpu0_STLB PREFETCH     ACCESS:          0 HIT:          0 MISS:          0
cpu0_STLB WRITE        ACCESS:          0 HIT:          0 MISS:          0
cpu0_STLB TRANSLATION  ACCESS:          0 HIT:          0 MISS:          0
cpu0_STLB PREFETCH REQUESTED:          0 ISSUED:          0 USEFUL:          0 USELESS:          0
cpu0_STLB AVERAGE MISS LATENCY: 371.4 cycles

DRAM Statistics

Channel 0 RQ ROW_BUFFER_HIT:      11097
  ROW_BUFFER_MISS:       2996
 AVG DBUS CONGESTED CYCLE: 3.886
WQ ROW_BUFFER_HIT: Channel 0 
  ROW_BUFFER_MISS:          3
  FULL:          0
