WARNING: physical memory size is smaller than virtual memory size.

*** ChampSim Multicore Out-of-Order Simulator ***
Warmup Instructions: 1000000
Simulation Instructions: 1000000
Number of CPUs: 1
Page size: 4096

Off-chip DRAM Size: 4 GiB Channels: 1 Width: 64-bit Data Race: 800 MT/s
Warmup finished CPU 0 instructions: 1000001 cycles: 251967 cumulative IPC: 3.969 (Simulation time: 00 hr 00 min 07 sec)
Warmup complete CPU 0 instructions: 1000001 cycles: 251967 cumulative IPC: 3.969 (Simulation time: 00 hr 00 min 07 sec)
Simulation finished CPU 0 instructions: 1000002 cycles: 479473 cumulative IPC: 2.086 (Simulation time: 00 hr 00 min 16 sec)
Simulation complete CPU 0 instructions: 1000002 cycles: 479473 cumulative IPC: 2.086 (Simulation time: 00 hr 00 min 16 sec)

ChampSim completed all CPUs

=== Simulation ===
CPU 0 runs /scratch/cluster/hill/traces/spec2006/zeusmp_100B.trace.xz
Region of Interest Statistics

CPU 0 cumulative IPC: 2.086 instructions: 1000002 cycles: 479473
CPU 0 Branch Prediction Accuracy: 99.88% MPKI: 0.039 Average ROB Occupancy at Mispredict: 345.8
Branch type MPKI
BRANCH_DIRECT_JUMP: 0
BRANCH_INDIRECT: 0
BRANCH_CONDITIONAL: 0.039
BRANCH_DIRECT_CALL: 0
BRANCH_INDIRECT_CALL: 0
BRANCH_RETURN: 0

LLC TOTAL        ACCESS:       4892 HIT:       1067 MISS:       3825
LLC LOAD         ACCESS:       2694 HIT:          0 MISS:       2694
LLC RFO          ACCESS:       1064 HIT:          0 MISS:       1064
LLC PREFETCH     ACCESS:          0 HIT:          0 MISS:          0
LLC WRITE        ACCESS:       1040 HIT:       1040 MISS:          0
LLC TRANSLATION  ACCESS:         94 HIT:         27 MISS:         67
LLC PREFETCH REQUESTED:          0 ISSUED:          0 USEFUL:          0 USELESS:          0
LLC AVERAGE MISS LATENCY: 331.1 cycles
cpu0_DTLB TOTAL        ACCESS:     173817 HIT:     141501 MISS:      32316
cpu0_DTLB LOAD         ACCESS:     173817 HIT:     141501 MISS:      32316
cpu0_DTLB RFO          ACCESS:          0 HIT:          0 MISS:          0
cpu0_DTLB PREFETCH     ACCESS:          0 HIT:          0 MISS:          0
cpu0_DTLB WRITE        ACCESS:          0 HIT:          0 MISS:          0
cpu0_DTLB TRANSLATION  ACCESS:          0 HIT:          0 MISS:          0
cpu0_DTLB PREFETCH REQUESTED:          0 ISSUED:          0 USEFUL:          0 USELESS:          0
cpu0_DTLB AVERAGE MISS LATENCY: 8.979 cycles
cpu0_ITLB TOTAL        ACCESS:       3841 HIT:       3841 MISS:          0
cpu0_ITLB LOAD         ACCESS:       3841 HIT:       3841 MISS:          0
cpu0_ITLB RFO          ACCESS:          0 HIT:          0 MISS:          0
cpu0_ITLB PREFETCH     ACCESS:          0 HIT:          0 MISS:          0
cpu0_ITLB WRITE        ACCESS:          0 HIT:          0 MISS:          0
cpu0_ITLB TRANSLATION  ACCESS:          0 HIT:          0 MISS:          0
cpu0_ITLB PREFETCH REQUESTED:          0 ISSUED:          0 USEFUL:          0 USELESS:          0
cpu0_ITLB AVERAGE MISS LATENCY: -nan cycles
cpu0_L1D TOTAL        ACCESS:     211135 HIT:     157602 MISS:      53533
cpu0_L1D LOAD         ACCESS:     123140 HIT:      93404 MISS:      29736
cpu0_L1D RFO          ACCESS:          0 HIT:          0 MISS:          0
cpu0_L1D PREFETCH     ACCESS:          0 HIT:          0 MISS:          0
cpu0_L1D WRITE        ACCESS:      87889 HIT:      64198 MISS:      23691
cpu0_L1D TRANSLATION  ACCESS:        106 HIT:          0 MISS:        106
cpu0_L1D PREFETCH REQUESTED:          0 ISSUED:          0 USEFUL:          0 USELESS:          0
cpu0_L1D AVERAGE MISS LATENCY: 33.09 cycles
cpu0_L1I TOTAL        ACCESS:       4712 HIT:       4712 MISS:          0
cpu0_L1I LOAD         ACCESS:       4712 HIT:       4712 MISS:          0
cpu0_L1I RFO          ACCESS:          0 HIT:          0 MISS:          0
cpu0_L1I PREFETCH     ACCESS:          0 HIT:          0 MISS:          0
cpu0_L1I WRITE        ACCESS:          0 HIT:          0 MISS:          0
cpu0_L1I TRANSLATION  ACCESS:          0 HIT:          0 MISS:          0
cpu0_L1I PREFETCH REQUESTED:          0 ISSUED:          0 USEFUL:          0 USELESS:          0
cpu0_L1I AVERAGE MISS LATENCY: -nan cycles
cpu0_L2C TOTAL        ACCESS:      61900 HIT:      58048 MISS:       3852
cpu0_L2C LOAD         ACCESS:      27505 HIT:      24811 MISS:       2694
cpu0_L2C RFO          ACCESS:      15974 HIT:      14910 MISS:       1064
cpu0_L2C PREFETCH     ACCESS:          0 HIT:          0 MISS:          0
cpu0_L2C WRITE        ACCESS:      18315 HIT:      18315 MISS:          0
cpu0_L2C TRANSLATION  ACCESS:        106 HIT:         12 MISS:         94
cpu0_L2C PREFETCH REQUESTED:          0 ISSUED:          0 USEFUL:          0 USELESS:          0
cpu0_L2C AVERAGE MISS LATENCY: 349.8 cycles
cpu0_STLB TOTAL        ACCESS:      30660 HIT:      30604 MISS:         56
cpu0_STLB LOAD         ACCESS:      30660 HIT:      30604 MISS:         56
cpu0_STLB RFO          ACCESS:          0 HIT:          0 MISS:          0
cpu0_STLB PREFETCH     ACCESS:          0 HIT:          0 MISS:          0
cpu0_STLB WRITE        ACCESS:          0 HIT:          0 MISS:          0
cpu0_STLB TRANSLATION  ACCESS:          0 HIT:          0 MISS:          0
cpu0_STLB PREFETCH REQUESTED:          0 ISSUED:          0 USEFUL:          0 USELESS:          0
cpu0_STLB AVERAGE MISS LATENCY: 840.3 cycles

DRAM Statistics

Channel 0 RQ ROW_BUFFER_HIT:        518
  ROW_BUFFER_MISS:       3307
 AVG DBUS CONGESTED CYCLE: 3.716
WQ ROW_BUFFER_HIT: Channel 0 
  ROW_BUFFER_MISS:          0
  FULL:          0
