WARNING: physical memory size is smaller than virtual memory size.

*** ChampSim Multicore Out-of-Order Simulator ***
Warmup Instructions: 10000000
Simulation Instructions: 10000000
Number of CPUs: 1
Page size: 4096

Off-chip DRAM Size: 4 GiB Channels: 1 Width: 64-bit Data Race: 800 MT/s
Heartbeat CPU 0 instructions: 10000002 cycles: 2537250 heartbeat IPC: 3.941 cumulative IPC: 3.941 (Simulation time: 00 hr 02 min 24 sec)
Warmup finished CPU 0 instructions: 10000002 cycles: 2537251 cumulative IPC: 3.941 (Simulation time: 00 hr 02 min 24 sec)
Warmup complete CPU 0 instructions: 10000002 cycles: 2537251 cumulative IPC: 3.941 (Simulation time: 00 hr 02 min 24 sec)
Heartbeat CPU 0 instructions: 20000002 cycles: 164221812 heartbeat IPC: 0.06185 cumulative IPC: 0.06185 (Simulation time: 00 hr 18 min 56 sec)
Simulation finished CPU 0 instructions: 10000000 cycles: 161684562 cumulative IPC: 0.06185 (Simulation time: 00 hr 18 min 56 sec)
Simulation complete CPU 0 instructions: 10000000 cycles: 161684562 cumulative IPC: 0.06185 (Simulation time: 00 hr 18 min 56 sec)

ChampSim completed all CPUs

=== Simulation ===
CPU 0 runs /scratch/cluster/hill/traces/spec2006/mcf_250B.trace.xz
Region of Interest Statistics

CPU 0 cumulative IPC: 0.06185 instructions: 10000000 cycles: 161684562
CPU 0 Branch Prediction Accuracy: 92.47% MPKI: 22.82 Average ROB Occupancy at Mispredict: 27.24
Branch type MPKI
BRANCH_DIRECT_JUMP: 0.169
BRANCH_INDIRECT: 0
BRANCH_CONDITIONAL: 22.7
BRANCH_DIRECT_CALL: 0
BRANCH_INDIRECT_CALL: 0
BRANCH_RETURN: 0

LLC TOTAL        ACCESS:    1546825 HIT:     588117 MISS:     958708
LLC LOAD         ACCESS:    1424217 HIT:     509678 MISS:     914539
LLC RFO          ACCESS:       5847 HIT:       1857 MISS:       3990
LLC PREFETCH     ACCESS:          0 HIT:          0 MISS:          0
LLC WRITE        ACCESS:      57119 HIT:      57119 MISS:          0
LLC TRANSLATION  ACCESS:      59642 HIT:      19463 MISS:      40179
LLC PREFETCH REQUESTED:          0 ISSUED:          0 USEFUL:          0 USELESS:          0
LLC AVERAGE MISS LATENCY: 758.5 cycles
cpu0_DTLB TOTAL        ACCESS:    2680864 HIT:     314970 MISS:    2365894
cpu0_DTLB LOAD         ACCESS:    2680864 HIT:     314970 MISS:    2365894
cpu0_DTLB RFO          ACCESS:          0 HIT:          0 MISS:          0
cpu0_DTLB PREFETCH     ACCESS:          0 HIT:          0 MISS:          0
cpu0_DTLB WRITE        ACCESS:          0 HIT:          0 MISS:          0
cpu0_DTLB TRANSLATION  ACCESS:          0 HIT:          0 MISS:          0
cpu0_DTLB PREFETCH REQUESTED:          0 ISSUED:          0 USEFUL:          0 USELESS:          0
cpu0_DTLB AVERAGE MISS LATENCY: 26.84 cycles
cpu0_ITLB TOTAL        ACCESS:          0 HIT:          0 MISS:          0
cpu0_ITLB LOAD         ACCESS:          0 HIT:          0 MISS:          0
cpu0_ITLB RFO          ACCESS:          0 HIT:          0 MISS:          0
cpu0_ITLB PREFETCH     ACCESS:          0 HIT:          0 MISS:          0
cpu0_ITLB WRITE        ACCESS:          0 HIT:          0 MISS:          0
cpu0_ITLB TRANSLATION  ACCESS:          0 HIT:          0 MISS:          0
cpu0_ITLB PREFETCH REQUESTED:          0 ISSUED:          0 USEFUL:          0 USELESS:          0
cpu0_ITLB AVERAGE MISS LATENCY: -nan cycles
cpu0_L1D TOTAL        ACCESS:    3000756 HIT:     237267 MISS:    2763489
cpu0_L1D LOAD         ACCESS:    2831920 HIT:     148084 MISS:    2683836
cpu0_L1D RFO          ACCESS:          0 HIT:          0 MISS:          0
cpu0_L1D PREFETCH     ACCESS:          0 HIT:          0 MISS:          0
cpu0_L1D WRITE        ACCESS:      91944 HIT:      84303 MISS:       7641
cpu0_L1D TRANSLATION  ACCESS:      76892 HIT:       4880 MISS:      72012
cpu0_L1D PREFETCH REQUESTED:          0 ISSUED:          0 USEFUL:          0 USELESS:          0
cpu0_L1D AVERAGE MISS LATENCY: 280.9 cycles
cpu0_L1I TOTAL        ACCESS:          0 HIT:          0 MISS:          0
cpu0_L1I LOAD         ACCESS:          0 HIT:          0 MISS:          0
cpu0_L1I RFO          ACCESS:          0 HIT:          0 MISS:          0
cpu0_L1I PREFETCH     ACCESS:          0 HIT:          0 MISS:          0
cpu0_L1I WRITE        ACCESS:          0 HIT:          0 MISS:          0
cpu0_L1I TRANSLATION  ACCESS:          0 HIT:          0 MISS:          0
cpu0_L1I PREFETCH REQUESTED:          0 ISSUED:          0 USEFUL:          0 USELESS:          0
cpu0_L1I AVERAGE MISS LATENCY: -nan cycles
cpu0_L2C TOTAL        ACCESS:    1970433 HIT:     480727 MISS:    1489706
cpu0_L2C LOAD         ACCESS:    1832730 HIT:     408513 MISS:    1424217
cpu0_L2C RFO          ACCESS:       6876 HIT:       1029 MISS:       5847
cpu0_L2C PREFETCH     ACCESS:          0 HIT:          0 MISS:          0
cpu0_L2C WRITE        ACCESS:      59163 HIT:      59163 MISS:          0
cpu0_L2C TRANSLATION  ACCESS:      71664 HIT:      12022 MISS:      59642
cpu0_L2C PREFETCH REQUESTED:          0 ISSUED:          0 USEFUL:          0 USELESS:          0
cpu0_L2C AVERAGE MISS LATENCY: 508.8 cycles
cpu0_STLB TOTAL        ACCESS:    1719090 HIT:    1663502 MISS:      55588
cpu0_STLB LOAD         ACCESS:    1719090 HIT:    1663502 MISS:      55588
cpu0_STLB RFO          ACCESS:          0 HIT:          0 MISS:          0
cpu0_STLB PREFETCH     ACCESS:          0 HIT:          0 MISS:          0
cpu0_STLB WRITE        ACCESS:          0 HIT:          0 MISS:          0
cpu0_STLB TRANSLATION  ACCESS:          0 HIT:          0 MISS:          0
cpu0_STLB PREFETCH REQUESTED:          0 ISSUED:          0 USEFUL:          0 USELESS:          0
cpu0_STLB AVERAGE MISS LATENCY: 940.1 cycles

DRAM Statistics

Channel 0 RQ ROW_BUFFER_HIT:      16305
  ROW_BUFFER_MISS:     942279
 AVG DBUS CONGESTED CYCLE: 3.981
WQ ROW_BUFFER_HIT: Channel 0 
  ROW_BUFFER_MISS:       2072
  FULL:      50869
