WARNING: physical memory size is smaller than virtual memory size.

*** ChampSim Multicore Out-of-Order Simulator ***
Warmup Instructions: 10000000
Simulation Instructions: 10000000
Number of CPUs: 1
Page size: 4096

Off-chip DRAM Size: 4 GiB Channels: 1 Width: 64-bit Data Race: 800 MT/s
Heartbeat CPU 0 instructions: 10000001 cycles: 2542969 heartbeat IPC: 3.932 cumulative IPC: 3.932 (Simulation time: 00 hr 02 min 22 sec)
Warmup finished CPU 0 instructions: 10000001 cycles: 2542970 cumulative IPC: 3.932 (Simulation time: 00 hr 02 min 22 sec)
Warmup complete CPU 0 instructions: 10000001 cycles: 2542970 cumulative IPC: 3.932 (Simulation time: 00 hr 02 min 22 sec)
Heartbeat CPU 0 instructions: 20000000 cycles: 148624677 heartbeat IPC: 0.06845 cumulative IPC: 0.06845 (Simulation time: 00 hr 17 min 16 sec)
Simulation finished CPU 0 instructions: 10000000 cycles: 146081869 cumulative IPC: 0.06845 (Simulation time: 00 hr 17 min 16 sec)
Simulation complete CPU 0 instructions: 10000000 cycles: 146081869 cumulative IPC: 0.06845 (Simulation time: 00 hr 17 min 16 sec)

ChampSim completed all CPUs

=== Simulation ===
CPU 0 runs /scratch/cluster/hill/traces/spec2006/mcf_158B.trace.xz
Region of Interest Statistics

CPU 0 cumulative IPC: 0.06845 instructions: 10000000 cycles: 146081869
CPU 0 Branch Prediction Accuracy: 91.66% MPKI: 24.63 Average ROB Occupancy at Mispredict: 24.39
Branch type MPKI
BRANCH_DIRECT_JUMP: 0.478
BRANCH_INDIRECT: 0
BRANCH_CONDITIONAL: 24.1
BRANCH_DIRECT_CALL: 0
BRANCH_INDIRECT_CALL: 0
BRANCH_RETURN: 0

LLC TOTAL        ACCESS:    1483400 HIT:     596804 MISS:     886596
LLC LOAD         ACCESS:    1323260 HIT:     487171 MISS:     836089
LLC RFO          ACCESS:       6969 HIT:       2682 MISS:       4287
LLC PREFETCH     ACCESS:          0 HIT:          0 MISS:          0
LLC WRITE        ACCESS:      82901 HIT:      82895 MISS:          6
LLC TRANSLATION  ACCESS:      70270 HIT:      24056 MISS:      46214
LLC PREFETCH REQUESTED:          0 ISSUED:          0 USEFUL:          0 USELESS:          0
LLC AVERAGE MISS LATENCY: 627.6 cycles
cpu0_DTLB TOTAL        ACCESS:    2768493 HIT:     632271 MISS:    2136222
cpu0_DTLB LOAD         ACCESS:    2768493 HIT:     632271 MISS:    2136222
cpu0_DTLB RFO          ACCESS:          0 HIT:          0 MISS:          0
cpu0_DTLB PREFETCH     ACCESS:          0 HIT:          0 MISS:          0
cpu0_DTLB WRITE        ACCESS:          0 HIT:          0 MISS:          0
cpu0_DTLB TRANSLATION  ACCESS:          0 HIT:          0 MISS:          0
cpu0_DTLB PREFETCH REQUESTED:          0 ISSUED:          0 USEFUL:          0 USELESS:          0
cpu0_DTLB AVERAGE MISS LATENCY: 28.91 cycles
cpu0_ITLB TOTAL        ACCESS:          0 HIT:          0 MISS:          0
cpu0_ITLB LOAD         ACCESS:          0 HIT:          0 MISS:          0
cpu0_ITLB RFO          ACCESS:          0 HIT:          0 MISS:          0
cpu0_ITLB PREFETCH     ACCESS:          0 HIT:          0 MISS:          0
cpu0_ITLB WRITE        ACCESS:          0 HIT:          0 MISS:          0
cpu0_ITLB TRANSLATION  ACCESS:          0 HIT:          0 MISS:          0
cpu0_ITLB PREFETCH REQUESTED:          0 ISSUED:          0 USEFUL:          0 USELESS:          0
cpu0_ITLB AVERAGE MISS LATENCY: -nan cycles
cpu0_L1D TOTAL        ACCESS:    3209481 HIT:     596098 MISS:    2613383
cpu0_L1D LOAD         ACCESS:    2890100 HIT:     377990 MISS:    2512110
cpu0_L1D RFO          ACCESS:          0 HIT:          0 MISS:          0
cpu0_L1D PREFETCH     ACCESS:          0 HIT:          0 MISS:          0
cpu0_L1D WRITE        ACCESS:     224504 HIT:     210884 MISS:      13620
cpu0_L1D TRANSLATION  ACCESS:      94877 HIT:       7224 MISS:      87653
cpu0_L1D PREFETCH REQUESTED:          0 ISSUED:          0 USEFUL:          0 USELESS:          0
cpu0_L1D AVERAGE MISS LATENCY: 230.5 cycles
cpu0_L1I TOTAL        ACCESS:          0 HIT:          0 MISS:          0
cpu0_L1I LOAD         ACCESS:          0 HIT:          0 MISS:          0
cpu0_L1I RFO          ACCESS:          0 HIT:          0 MISS:          0
cpu0_L1I PREFETCH     ACCESS:          0 HIT:          0 MISS:          0
cpu0_L1I WRITE        ACCESS:          0 HIT:          0 MISS:          0
cpu0_L1I TRANSLATION  ACCESS:          0 HIT:          0 MISS:          0
cpu0_L1I PREFETCH REQUESTED:          0 ISSUED:          0 USEFUL:          0 USELESS:          0
cpu0_L1I AVERAGE MISS LATENCY: -nan cycles
cpu0_L2C TOTAL        ACCESS:    1864202 HIT:     463702 MISS:    1400500
cpu0_L2C LOAD         ACCESS:    1666740 HIT:     343479 MISS:    1323261
cpu0_L2C RFO          ACCESS:      10064 HIT:       3095 MISS:       6969
cpu0_L2C PREFETCH     ACCESS:          0 HIT:          0 MISS:          0
cpu0_L2C WRITE        ACCESS:     100033 HIT:     100033 MISS:          0
cpu0_L2C TRANSLATION  ACCESS:      87365 HIT:      17095 MISS:      70270
cpu0_L2C PREFETCH REQUESTED:          0 ISSUED:          0 USEFUL:          0 USELESS:          0
cpu0_L2C AVERAGE MISS LATENCY: 417.9 cycles
cpu0_STLB TOTAL        ACCESS:    1509209 HIT:    1438684 MISS:      70525
cpu0_STLB LOAD         ACCESS:    1509209 HIT:    1438684 MISS:      70525
cpu0_STLB RFO          ACCESS:          0 HIT:          0 MISS:          0
cpu0_STLB PREFETCH     ACCESS:          0 HIT:          0 MISS:          0
cpu0_STLB WRITE        ACCESS:          0 HIT:          0 MISS:          0
cpu0_STLB TRANSLATION  ACCESS:          0 HIT:          0 MISS:          0
cpu0_STLB PREFETCH REQUESTED:          0 ISSUED:          0 USEFUL:          0 USELESS:          0
cpu0_STLB AVERAGE MISS LATENCY: 737.6 cycles

DRAM Statistics

Channel 0 RQ ROW_BUFFER_HIT:      16657
  ROW_BUFFER_MISS:     869713
 AVG DBUS CONGESTED CYCLE: 3.979
WQ ROW_BUFFER_HIT: Channel 0 
  ROW_BUFFER_MISS:       3266
  FULL:      60993
