WARNING: physical memory size is smaller than virtual memory size.

*** ChampSim Multicore Out-of-Order Simulator ***
Warmup Instructions: 10000000
Simulation Instructions: 10000000
Number of CPUs: 1
Page size: 4096

Off-chip DRAM Size: 4 GiB Channels: 1 Width: 64-bit Data Race: 800 MT/s
Heartbeat CPU 0 instructions: 10000002 cycles: 2500115 heartbeat IPC: 4 cumulative IPC: 4 (Simulation time: 00 hr 02 min 10 sec)
Warmup finished CPU 0 instructions: 10000002 cycles: 2500116 cumulative IPC: 4 (Simulation time: 00 hr 02 min 10 sec)
Warmup complete CPU 0 instructions: 10000002 cycles: 2500116 cumulative IPC: 4 (Simulation time: 00 hr 02 min 10 sec)
Heartbeat CPU 0 instructions: 20000000 cycles: 38764788 heartbeat IPC: 0.2758 cumulative IPC: 0.2758 (Simulation time: 00 hr 10 min 08 sec)
Simulation finished CPU 0 instructions: 10000002 cycles: 36264674 cumulative IPC: 0.2758 (Simulation time: 00 hr 10 min 08 sec)
Simulation complete CPU 0 instructions: 10000002 cycles: 36264674 cumulative IPC: 0.2758 (Simulation time: 00 hr 10 min 08 sec)

ChampSim completed all CPUs

=== Simulation ===
CPU 0 runs /scratch/cluster/hill/traces/spec2006/GemsFDTD_109B.trace.xz
Region of Interest Statistics

CPU 0 cumulative IPC: 0.2758 instructions: 10000002 cycles: 36264674
CPU 0 Branch Prediction Accuracy: 98.21% MPKI: 0.2957 Average ROB Occupancy at Mispredict: 123.8
Branch type MPKI
BRANCH_DIRECT_JUMP: 0.0007
BRANCH_INDIRECT: 0.0001
BRANCH_CONDITIONAL: 0.167
BRANCH_DIRECT_CALL: 0.0007
BRANCH_INDIRECT_CALL: 0
BRANCH_RETURN: 0.127

LLC TOTAL        ACCESS:     387723 HIT:     136086 MISS:     251637
LLC LOAD         ACCESS:     242525 HIT:        175 MISS:     242350
LLC RFO          ACCESS:       9345 HIT:        170 MISS:       9175
LLC PREFETCH     ACCESS:          0 HIT:          0 MISS:          0
LLC WRITE        ACCESS:     135627 HIT:     135613 MISS:         14
LLC TRANSLATION  ACCESS:        226 HIT:        128 MISS:         98
LLC PREFETCH REQUESTED:          0 ISSUED:          0 USEFUL:          0 USELESS:          0
LLC AVERAGE MISS LATENCY: 1179 cycles
cpu0_DTLB TOTAL        ACCESS:    3095830 HIT:    3086076 MISS:       9754
cpu0_DTLB LOAD         ACCESS:    3095830 HIT:    3086076 MISS:       9754
cpu0_DTLB RFO          ACCESS:          0 HIT:          0 MISS:          0
cpu0_DTLB PREFETCH     ACCESS:          0 HIT:          0 MISS:          0
cpu0_DTLB WRITE        ACCESS:          0 HIT:          0 MISS:          0
cpu0_DTLB TRANSLATION  ACCESS:          0 HIT:          0 MISS:          0
cpu0_DTLB PREFETCH REQUESTED:          0 ISSUED:          0 USEFUL:          0 USELESS:          0
cpu0_DTLB AVERAGE MISS LATENCY: 66.43 cycles
cpu0_ITLB TOTAL        ACCESS:        110 HIT:         94 MISS:         16
cpu0_ITLB LOAD         ACCESS:        110 HIT:         94 MISS:         16
cpu0_ITLB RFO          ACCESS:          0 HIT:          0 MISS:          0
cpu0_ITLB PREFETCH     ACCESS:          0 HIT:          0 MISS:          0
cpu0_ITLB WRITE        ACCESS:          0 HIT:          0 MISS:          0
cpu0_ITLB TRANSLATION  ACCESS:          0 HIT:          0 MISS:          0
cpu0_ITLB PREFETCH REQUESTED:          0 ISSUED:          0 USEFUL:          0 USELESS:          0
cpu0_ITLB AVERAGE MISS LATENCY: 353.8 cycles
cpu0_L1D TOTAL        ACCESS:    3972029 HIT:    2824238 MISS:    1147791
cpu0_L1D LOAD         ACCESS:    2838702 HIT:    1768408 MISS:    1070294
cpu0_L1D RFO          ACCESS:          0 HIT:          0 MISS:          0
cpu0_L1D PREFETCH     ACCESS:          0 HIT:          0 MISS:          0
cpu0_L1D WRITE        ACCESS:    1129871 HIT:    1055616 MISS:      74255
cpu0_L1D TRANSLATION  ACCESS:       3456 HIT:        214 MISS:       3242
cpu0_L1D PREFETCH REQUESTED:          0 ISSUED:          0 USEFUL:          0 USELESS:          0
cpu0_L1D AVERAGE MISS LATENCY: 135.3 cycles
cpu0_L1I TOTAL        ACCESS:        124 HIT:         39 MISS:         85
cpu0_L1I LOAD         ACCESS:        124 HIT:         39 MISS:         85
cpu0_L1I RFO          ACCESS:          0 HIT:          0 MISS:          0
cpu0_L1I PREFETCH     ACCESS:          0 HIT:          0 MISS:          0
cpu0_L1I WRITE        ACCESS:          0 HIT:          0 MISS:          0
cpu0_L1I TRANSLATION  ACCESS:          0 HIT:          0 MISS:          0
cpu0_L1I PREFETCH REQUESTED:          0 ISSUED:          0 USEFUL:          0 USELESS:          0
cpu0_L1I AVERAGE MISS LATENCY: 374.5 cycles
cpu0_L2C TOTAL        ACCESS:     450040 HIT:     197938 MISS:     252102
cpu0_L2C LOAD         ACCESS:     296946 HIT:      54421 MISS:     242525
cpu0_L2C RFO          ACCESS:      10032 HIT:        687 MISS:       9345
cpu0_L2C PREFETCH     ACCESS:          0 HIT:          0 MISS:          0
cpu0_L2C WRITE        ACCESS:     139820 HIT:     139814 MISS:          6
cpu0_L2C TRANSLATION  ACCESS:       3242 HIT:       3016 MISS:        226
cpu0_L2C PREFETCH REQUESTED:          0 ISSUED:          0 USEFUL:          0 USELESS:          0
cpu0_L2C AVERAGE MISS LATENCY: 1198 cycles
cpu0_STLB TOTAL        ACCESS:       4207 HIT:        757 MISS:       3450
cpu0_STLB LOAD         ACCESS:       4207 HIT:        757 MISS:       3450
cpu0_STLB RFO          ACCESS:          0 HIT:          0 MISS:          0
cpu0_STLB PREFETCH     ACCESS:          0 HIT:          0 MISS:          0
cpu0_STLB WRITE        ACCESS:          0 HIT:          0 MISS:          0
cpu0_STLB TRANSLATION  ACCESS:          0 HIT:          0 MISS:          0
cpu0_STLB PREFETCH REQUESTED:          0 ISSUED:          0 USEFUL:          0 USELESS:          0
cpu0_STLB AVERAGE MISS LATENCY: 255.9 cycles

DRAM Statistics

Channel 0 RQ ROW_BUFFER_HIT:     118578
  ROW_BUFFER_MISS:     133045
 AVG DBUS CONGESTED CYCLE: 3.905
WQ ROW_BUFFER_HIT: Channel 0 
  ROW_BUFFER_MISS:      10096
  FULL:     125596
