WARNING: physical memory size is smaller than virtual memory size.

*** ChampSim Multicore Out-of-Order Simulator ***
Warmup Instructions: 10000000
Simulation Instructions: 10000000
Number of CPUs: 1
Page size: 4096

Off-chip DRAM Size: 4 GiB Channels: 1 Width: 64-bit Data Race: 800 MT/s
Heartbeat CPU 0 instructions: 10000000 cycles: 2500108 heartbeat IPC: 4 cumulative IPC: 4 (Simulation time: 00 hr 01 min 57 sec)
Warmup finished CPU 0 instructions: 10000000 cycles: 2500109 cumulative IPC: 4 (Simulation time: 00 hr 01 min 57 sec)
Warmup complete CPU 0 instructions: 10000000 cycles: 2500109 cumulative IPC: 4 (Simulation time: 00 hr 01 min 57 sec)
Heartbeat CPU 0 instructions: 20000003 cycles: 6585450 heartbeat IPC: 2.448 cumulative IPC: 2.448 (Simulation time: 00 hr 04 min 27 sec)
Simulation finished CPU 0 instructions: 10000003 cycles: 4085342 cumulative IPC: 2.448 (Simulation time: 00 hr 04 min 27 sec)
Simulation complete CPU 0 instructions: 10000003 cycles: 4085342 cumulative IPC: 2.448 (Simulation time: 00 hr 04 min 27 sec)

ChampSim completed all CPUs

=== Simulation ===
CPU 0 runs /scratch/cluster/hill/traces/spec2006/wrf_1650B.trace.xz
Region of Interest Statistics

CPU 0 cumulative IPC: 2.448 instructions: 10000003 cycles: 4085342
CPU 0 Branch Prediction Accuracy: 99.97% MPKI: 0.0323 Average ROB Occupancy at Mispredict: 293
Branch type MPKI
BRANCH_DIRECT_JUMP: 0
BRANCH_INDIRECT: 0
BRANCH_CONDITIONAL: 0.0323
BRANCH_DIRECT_CALL: 0
BRANCH_INDIRECT_CALL: 0
BRANCH_RETURN: 0

LLC TOTAL        ACCESS:      19025 HIT:       4180 MISS:      14845
LLC LOAD         ACCESS:      10663 HIT:          0 MISS:      10663
LLC RFO          ACCESS:       4174 HIT:          0 MISS:       4174
LLC PREFETCH     ACCESS:          0 HIT:          0 MISS:          0
LLC WRITE        ACCESS:       4178 HIT:       4178 MISS:          0
LLC TRANSLATION  ACCESS:         10 HIT:          2 MISS:          8
LLC PREFETCH REQUESTED:          0 ISSUED:          0 USEFUL:          0 USELESS:          0
LLC AVERAGE MISS LATENCY: 122.6 cycles
cpu0_DTLB TOTAL        ACCESS:    1575217 HIT:    1574737 MISS:        480
cpu0_DTLB LOAD         ACCESS:    1575217 HIT:    1574737 MISS:        480
cpu0_DTLB RFO          ACCESS:          0 HIT:          0 MISS:          0
cpu0_DTLB PREFETCH     ACCESS:          0 HIT:          0 MISS:          0
cpu0_DTLB WRITE        ACCESS:          0 HIT:          0 MISS:          0
cpu0_DTLB TRANSLATION  ACCESS:          0 HIT:          0 MISS:          0
cpu0_DTLB PREFETCH REQUESTED:          0 ISSUED:          0 USEFUL:          0 USELESS:          0
cpu0_DTLB AVERAGE MISS LATENCY: 60.39 cycles
cpu0_ITLB TOTAL        ACCESS:          0 HIT:          0 MISS:          0
cpu0_ITLB LOAD         ACCESS:          0 HIT:          0 MISS:          0
cpu0_ITLB RFO          ACCESS:          0 HIT:          0 MISS:          0
cpu0_ITLB PREFETCH     ACCESS:          0 HIT:          0 MISS:          0
cpu0_ITLB WRITE        ACCESS:          0 HIT:          0 MISS:          0
cpu0_ITLB TRANSLATION  ACCESS:          0 HIT:          0 MISS:          0
cpu0_ITLB PREFETCH REQUESTED:          0 ISSUED:          0 USEFUL:          0 USELESS:          0
cpu0_ITLB AVERAGE MISS LATENCY: -nan cycles
cpu0_L1D TOTAL        ACCESS:    1799009 HIT:    1769642 MISS:      29367
cpu0_L1D LOAD         ACCESS:    1512162 HIT:    1491963 MISS:      20199
cpu0_L1D RFO          ACCESS:          0 HIT:          0 MISS:          0
cpu0_L1D PREFETCH     ACCESS:          0 HIT:          0 MISS:          0
cpu0_L1D WRITE        ACCESS:     286607 HIT:     277675 MISS:       8932
cpu0_L1D TRANSLATION  ACCESS:        240 HIT:          4 MISS:        236
cpu0_L1D PREFETCH REQUESTED:          0 ISSUED:          0 USEFUL:          0 USELESS:          0
cpu0_L1D AVERAGE MISS LATENCY: 23.42 cycles
cpu0_L1I TOTAL        ACCESS:          0 HIT:          0 MISS:          0
cpu0_L1I LOAD         ACCESS:          0 HIT:          0 MISS:          0
cpu0_L1I RFO          ACCESS:          0 HIT:          0 MISS:          0
cpu0_L1I PREFETCH     ACCESS:          0 HIT:          0 MISS:          0
cpu0_L1I WRITE        ACCESS:          0 HIT:          0 MISS:          0
cpu0_L1I TRANSLATION  ACCESS:          0 HIT:          0 MISS:          0
cpu0_L1I PREFETCH REQUESTED:          0 ISSUED:          0 USEFUL:          0 USELESS:          0
cpu0_L1I AVERAGE MISS LATENCY: -nan cycles
cpu0_L2C TOTAL        ACCESS:      19338 HIT:       4491 MISS:      14847
cpu0_L2C LOAD         ACCESS:      10735 HIT:         72 MISS:      10663
cpu0_L2C RFO          ACCESS:       4184 HIT:         10 MISS:       4174
cpu0_L2C PREFETCH     ACCESS:          0 HIT:          0 MISS:          0
cpu0_L2C WRITE        ACCESS:       4183 HIT:       4183 MISS:          0
cpu0_L2C TRANSLATION  ACCESS:        236 HIT:        226 MISS:         10
cpu0_L2C PREFETCH REQUESTED:          0 ISSUED:          0 USEFUL:          0 USELESS:          0
cpu0_L2C AVERAGE MISS LATENCY: 143.6 cycles
cpu0_STLB TOTAL        ACCESS:        241 HIT:          1 MISS:        240
cpu0_STLB LOAD         ACCESS:        241 HIT:          1 MISS:        240
cpu0_STLB RFO          ACCESS:          0 HIT:          0 MISS:          0
cpu0_STLB PREFETCH     ACCESS:          0 HIT:          0 MISS:          0
cpu0_STLB WRITE        ACCESS:          0 HIT:          0 MISS:          0
cpu0_STLB TRANSLATION  ACCESS:          0 HIT:          0 MISS:          0
cpu0_STLB PREFETCH REQUESTED:          0 ISSUED:          0 USEFUL:          0 USELESS:          0
cpu0_STLB AVERAGE MISS LATENCY: 228.3 cycles

DRAM Statistics

Channel 0 RQ ROW_BUFFER_HIT:      11983
  ROW_BUFFER_MISS:       2861
 AVG DBUS CONGESTED CYCLE: 3.753
WQ ROW_BUFFER_HIT: Channel 0 
  ROW_BUFFER_MISS:          0
  FULL:          0
