WARNING: physical memory size is smaller than virtual memory size.

*** ChampSim Multicore Out-of-Order Simulator ***
Warmup Instructions: 10000000
Simulation Instructions: 10000000
Number of CPUs: 1
Page size: 4096

Off-chip DRAM Size: 4 GiB Channels: 1 Width: 64-bit Data Race: 800 MT/s
Heartbeat CPU 0 instructions: 10000002 cycles: 2561011 heartbeat IPC: 3.905 cumulative IPC: 3.905 (Simulation time: 00 hr 02 min 07 sec)
Warmup finished CPU 0 instructions: 10000002 cycles: 2561012 cumulative IPC: 3.905 (Simulation time: 00 hr 02 min 07 sec)
Warmup complete CPU 0 instructions: 10000002 cycles: 2561012 cumulative IPC: 3.905 (Simulation time: 00 hr 02 min 07 sec)
Heartbeat CPU 0 instructions: 20000001 cycles: 11507058 heartbeat IPC: 1.118 cumulative IPC: 1.118 (Simulation time: 00 hr 05 min 46 sec)
Simulation finished CPU 0 instructions: 10000003 cycles: 8946048 cumulative IPC: 1.118 (Simulation time: 00 hr 05 min 46 sec)
Simulation complete CPU 0 instructions: 10000003 cycles: 8946048 cumulative IPC: 1.118 (Simulation time: 00 hr 05 min 46 sec)

ChampSim completed all CPUs

=== Simulation ===
CPU 0 runs /scratch/cluster/hill/traces/spec2006/wrf_1228B.trace.xz
Region of Interest Statistics

CPU 0 cumulative IPC: 1.118 instructions: 10000003 cycles: 8946048
CPU 0 Branch Prediction Accuracy: 99.83% MPKI: 0.0707 Average ROB Occupancy at Mispredict: 290
Branch type MPKI
BRANCH_DIRECT_JUMP: 0.0012
BRANCH_INDIRECT: 0
BRANCH_CONDITIONAL: 0.0695
BRANCH_DIRECT_CALL: 0
BRANCH_INDIRECT_CALL: 0
BRANCH_RETURN: 0

LLC TOTAL        ACCESS:     143342 HIT:      39335 MISS:     104007
LLC LOAD         ACCESS:     106739 HIT:       3220 MISS:     103519
LLC RFO          ACCESS:        530 HIT:        305 MISS:        225
LLC PREFETCH     ACCESS:          0 HIT:          0 MISS:          0
LLC WRITE        ACCESS:      36011 HIT:      35796 MISS:        215
LLC TRANSLATION  ACCESS:         62 HIT:         14 MISS:         48
LLC PREFETCH REQUESTED:          0 ISSUED:          0 USEFUL:          0 USELESS:          0
LLC AVERAGE MISS LATENCY: 291.5 cycles
cpu0_DTLB TOTAL        ACCESS:    2373337 HIT:    2363468 MISS:       9869
cpu0_DTLB LOAD         ACCESS:    2373337 HIT:    2363468 MISS:       9869
cpu0_DTLB RFO          ACCESS:          0 HIT:          0 MISS:          0
cpu0_DTLB PREFETCH     ACCESS:          0 HIT:          0 MISS:          0
cpu0_DTLB WRITE        ACCESS:          0 HIT:          0 MISS:          0
cpu0_DTLB TRANSLATION  ACCESS:          0 HIT:          0 MISS:          0
cpu0_DTLB PREFETCH REQUESTED:          0 ISSUED:          0 USEFUL:          0 USELESS:          0
cpu0_DTLB AVERAGE MISS LATENCY: 7.312 cycles
cpu0_ITLB TOTAL        ACCESS:       4434 HIT:       4424 MISS:         10
cpu0_ITLB LOAD         ACCESS:       4434 HIT:       4424 MISS:         10
cpu0_ITLB RFO          ACCESS:          0 HIT:          0 MISS:          0
cpu0_ITLB PREFETCH     ACCESS:          0 HIT:          0 MISS:          0
cpu0_ITLB WRITE        ACCESS:          0 HIT:          0 MISS:          0
cpu0_ITLB TRANSLATION  ACCESS:          0 HIT:          0 MISS:          0
cpu0_ITLB PREFETCH REQUESTED:          0 ISSUED:          0 USEFUL:          0 USELESS:          0
cpu0_ITLB AVERAGE MISS LATENCY: 204 cycles
cpu0_L1D TOTAL        ACCESS:    2972735 HIT:    1796557 MISS:    1176178
cpu0_L1D LOAD         ACCESS:    2501387 HIT:    1361140 MISS:    1140247
cpu0_L1D RFO          ACCESS:          0 HIT:          0 MISS:          0
cpu0_L1D PREFETCH     ACCESS:          0 HIT:          0 MISS:          0
cpu0_L1D WRITE        ACCESS:     470395 HIT:     435040 MISS:      35355
cpu0_L1D TRANSLATION  ACCESS:        953 HIT:        377 MISS:        576
cpu0_L1D PREFETCH REQUESTED:          0 ISSUED:          0 USEFUL:          0 USELESS:          0
cpu0_L1D AVERAGE MISS LATENCY: 18.52 cycles
cpu0_L1I TOTAL        ACCESS:       4740 HIT:       4534 MISS:        206
cpu0_L1I LOAD         ACCESS:       4740 HIT:       4534 MISS:        206
cpu0_L1I RFO          ACCESS:          0 HIT:          0 MISS:          0
cpu0_L1I PREFETCH     ACCESS:          0 HIT:          0 MISS:          0
cpu0_L1I WRITE        ACCESS:          0 HIT:          0 MISS:          0
cpu0_L1I TRANSLATION  ACCESS:          0 HIT:          0 MISS:          0
cpu0_L1I PREFETCH REQUESTED:          0 ISSUED:          0 USEFUL:          0 USELESS:          0
cpu0_L1I AVERAGE MISS LATENCY: 220.4 cycles
cpu0_L2C TOTAL        ACCESS:     298075 HIT:     190686 MISS:     107389
cpu0_L2C LOAD         ACCESS:     206703 HIT:      99962 MISS:     106741
cpu0_L2C RFO          ACCESS:      22657 HIT:      22127 MISS:        530
cpu0_L2C PREFETCH     ACCESS:          0 HIT:          0 MISS:          0
cpu0_L2C WRITE        ACCESS:      68139 HIT:      68083 MISS:         56
cpu0_L2C TRANSLATION  ACCESS:        576 HIT:        514 MISS:         62
cpu0_L2C PREFETCH REQUESTED:          0 ISSUED:          0 USEFUL:          0 USELESS:          0
cpu0_L2C AVERAGE MISS LATENCY: 303.3 cycles
cpu0_STLB TOTAL        ACCESS:       1941 HIT:        990 MISS:        951
cpu0_STLB LOAD         ACCESS:       1941 HIT:        990 MISS:        951
cpu0_STLB RFO          ACCESS:          0 HIT:          0 MISS:          0
cpu0_STLB PREFETCH     ACCESS:          0 HIT:          0 MISS:          0
cpu0_STLB WRITE        ACCESS:          0 HIT:          0 MISS:          0
cpu0_STLB TRANSLATION  ACCESS:          0 HIT:          0 MISS:          0
cpu0_STLB PREFETCH REQUESTED:          0 ISSUED:          0 USEFUL:          0 USELESS:          0
cpu0_STLB AVERAGE MISS LATENCY: 190.3 cycles

DRAM Statistics

Channel 0 RQ ROW_BUFFER_HIT:      35430
  ROW_BUFFER_MISS:      68360
 AVG DBUS CONGESTED CYCLE: 3.763
WQ ROW_BUFFER_HIT: Channel 0 
  ROW_BUFFER_MISS:       4613
  FULL:      29924
