WARNING: physical memory size is smaller than virtual memory size.

*** ChampSim Multicore Out-of-Order Simulator ***
Warmup Instructions: 10000000
Simulation Instructions: 10000000
Number of CPUs: 1
Page size: 4096

Off-chip DRAM Size: 4 GiB Channels: 1 Width: 64-bit Data Race: 800 MT/s
Heartbeat CPU 0 instructions: 10000000 cycles: 2500619 heartbeat IPC: 3.999 cumulative IPC: 3.999 (Simulation time: 00 hr 02 min 07 sec)
Warmup finished CPU 0 instructions: 10000000 cycles: 2500620 cumulative IPC: 3.999 (Simulation time: 00 hr 02 min 07 sec)
Warmup complete CPU 0 instructions: 10000000 cycles: 2500620 cumulative IPC: 3.999 (Simulation time: 00 hr 02 min 07 sec)
Heartbeat CPU 0 instructions: 20000000 cycles: 9397618 heartbeat IPC: 1.45 cumulative IPC: 1.45 (Simulation time: 00 hr 05 min 27 sec)
Simulation finished CPU 0 instructions: 10000000 cycles: 6896999 cumulative IPC: 1.45 (Simulation time: 00 hr 05 min 27 sec)
Simulation complete CPU 0 instructions: 10000000 cycles: 6896999 cumulative IPC: 1.45 (Simulation time: 00 hr 05 min 27 sec)

ChampSim completed all CPUs

=== Simulation ===
CPU 0 runs /scratch/cluster/hill/traces/spec2006/hmmer_7B.trace.xz
Region of Interest Statistics

CPU 0 cumulative IPC: 1.45 instructions: 10000000 cycles: 6896999
CPU 0 Branch Prediction Accuracy: 99.71% MPKI: 0.1078 Average ROB Occupancy at Mispredict: 230.6
Branch type MPKI
BRANCH_DIRECT_JUMP: 0
BRANCH_INDIRECT: 0
BRANCH_CONDITIONAL: 0.108
BRANCH_DIRECT_CALL: 0
BRANCH_INDIRECT_CALL: 0
BRANCH_RETURN: 0

LLC TOTAL        ACCESS:      61860 HIT:      30784 MISS:      31076
LLC LOAD         ACCESS:       1882 HIT:       1473 MISS:        409
LLC RFO          ACCESS:      30739 HIT:         74 MISS:      30665
LLC PREFETCH     ACCESS:          0 HIT:          0 MISS:          0
LLC WRITE        ACCESS:      29238 HIT:      29237 MISS:          1
LLC TRANSLATION  ACCESS:          1 HIT:          0 MISS:          1
LLC PREFETCH REQUESTED:          0 ISSUED:          0 USEFUL:          0 USELESS:          0
LLC AVERAGE MISS LATENCY: 2876 cycles
cpu0_DTLB TOTAL        ACCESS:    2139069 HIT:    2136185 MISS:       2884
cpu0_DTLB LOAD         ACCESS:    2139069 HIT:    2136185 MISS:       2884
cpu0_DTLB RFO          ACCESS:          0 HIT:          0 MISS:          0
cpu0_DTLB PREFETCH     ACCESS:          0 HIT:          0 MISS:          0
cpu0_DTLB WRITE        ACCESS:          0 HIT:          0 MISS:          0
cpu0_DTLB TRANSLATION  ACCESS:          0 HIT:          0 MISS:          0
cpu0_DTLB PREFETCH REQUESTED:          0 ISSUED:          0 USEFUL:          0 USELESS:          0
cpu0_DTLB AVERAGE MISS LATENCY: 19.85 cycles
cpu0_ITLB TOTAL        ACCESS:          0 HIT:          0 MISS:          0
cpu0_ITLB LOAD         ACCESS:          0 HIT:          0 MISS:          0
cpu0_ITLB RFO          ACCESS:          0 HIT:          0 MISS:          0
cpu0_ITLB PREFETCH     ACCESS:          0 HIT:          0 MISS:          0
cpu0_ITLB WRITE        ACCESS:          0 HIT:          0 MISS:          0
cpu0_ITLB TRANSLATION  ACCESS:          0 HIT:          0 MISS:          0
cpu0_ITLB PREFETCH REQUESTED:          0 ISSUED:          0 USEFUL:          0 USELESS:          0
cpu0_ITLB AVERAGE MISS LATENCY: -nan cycles
cpu0_L1D TOTAL        ACCESS:    2965280 HIT:    1651184 MISS:    1314096
cpu0_L1D LOAD         ACCESS:    1644041 HIT:    1609514 MISS:      34527
cpu0_L1D RFO          ACCESS:          0 HIT:          0 MISS:          0
cpu0_L1D PREFETCH     ACCESS:          0 HIT:          0 MISS:          0
cpu0_L1D WRITE        ACCESS:    1320886 HIT:      41625 MISS:    1279261
cpu0_L1D TRANSLATION  ACCESS:        353 HIT:         45 MISS:        308
cpu0_L1D PREFETCH REQUESTED:          0 ISSUED:          0 USEFUL:          0 USELESS:          0
cpu0_L1D AVERAGE MISS LATENCY: 57.17 cycles
cpu0_L1I TOTAL        ACCESS:          0 HIT:          0 MISS:          0
cpu0_L1I LOAD         ACCESS:          0 HIT:          0 MISS:          0
cpu0_L1I RFO          ACCESS:          0 HIT:          0 MISS:          0
cpu0_L1I PREFETCH     ACCESS:          0 HIT:          0 MISS:          0
cpu0_L1I WRITE        ACCESS:          0 HIT:          0 MISS:          0
cpu0_L1I TRANSLATION  ACCESS:          0 HIT:          0 MISS:          0
cpu0_L1I PREFETCH REQUESTED:          0 ISSUED:          0 USEFUL:          0 USELESS:          0
cpu0_L1I AVERAGE MISS LATENCY: -nan cycles
cpu0_L2C TOTAL        ACCESS:      83240 HIT:      50617 MISS:      32623
cpu0_L2C LOAD         ACCESS:      23057 HIT:      21175 MISS:       1882
cpu0_L2C RFO          ACCESS:      30739 HIT:          0 MISS:      30739
cpu0_L2C PREFETCH     ACCESS:          0 HIT:          0 MISS:          0
cpu0_L2C WRITE        ACCESS:      29136 HIT:      29135 MISS:          1
cpu0_L2C TRANSLATION  ACCESS:        308 HIT:        307 MISS:          1
cpu0_L2C PREFETCH REQUESTED:          0 ISSUED:          0 USEFUL:          0 USELESS:          0
cpu0_L2C AVERAGE MISS LATENCY: 2760 cycles
cpu0_STLB TOTAL        ACCESS:        895 HIT:        542 MISS:        353
cpu0_STLB LOAD         ACCESS:        895 HIT:        542 MISS:        353
cpu0_STLB RFO          ACCESS:          0 HIT:          0 MISS:          0
cpu0_STLB PREFETCH     ACCESS:          0 HIT:          0 MISS:          0
cpu0_STLB WRITE        ACCESS:          0 HIT:          0 MISS:          0
cpu0_STLB TRANSLATION  ACCESS:          0 HIT:          0 MISS:          0
cpu0_STLB PREFETCH REQUESTED:          0 ISSUED:          0 USEFUL:          0 USELESS:          0
cpu0_STLB AVERAGE MISS LATENCY: 257.6 cycles

DRAM Statistics

Channel 0 RQ ROW_BUFFER_HIT:      13221
  ROW_BUFFER_MISS:      17838
 AVG DBUS CONGESTED CYCLE: 3.957
WQ ROW_BUFFER_HIT: Channel 0 
  ROW_BUFFER_MISS:       6178
  FULL:      22379
