WARNING: physical memory size is smaller than virtual memory size.

*** ChampSim Multicore Out-of-Order Simulator ***
Warmup Instructions: 10000000
Simulation Instructions: 10000000
Number of CPUs: 1
Page size: 4096

Off-chip DRAM Size: 4 GiB Channels: 1 Width: 64-bit Data Race: 800 MT/s
Heartbeat CPU 0 instructions: 10000001 cycles: 2580038 heartbeat IPC: 3.876 cumulative IPC: 3.876 (Simulation time: 00 hr 02 min 03 sec)
Warmup finished CPU 0 instructions: 10000001 cycles: 2580039 cumulative IPC: 3.876 (Simulation time: 00 hr 02 min 03 sec)
Warmup complete CPU 0 instructions: 10000001 cycles: 2580039 cumulative IPC: 3.876 (Simulation time: 00 hr 02 min 03 sec)
Heartbeat CPU 0 instructions: 20000001 cycles: 27483886 heartbeat IPC: 0.4015 cumulative IPC: 0.4015 (Simulation time: 00 hr 08 min 08 sec)
Simulation finished CPU 0 instructions: 10000000 cycles: 24903848 cumulative IPC: 0.4015 (Simulation time: 00 hr 08 min 08 sec)
Simulation complete CPU 0 instructions: 10000000 cycles: 24903848 cumulative IPC: 0.4015 (Simulation time: 00 hr 08 min 08 sec)

ChampSim completed all CPUs

=== Simulation ===
CPU 0 runs /scratch/cluster/hill/traces/spec2006/bwaves_1609B.trace.xz
Region of Interest Statistics

CPU 0 cumulative IPC: 0.4015 instructions: 10000000 cycles: 24903848
CPU 0 Branch Prediction Accuracy: 99.95% MPKI: 0.0152 Average ROB Occupancy at Mispredict: 344.5
Branch type MPKI
BRANCH_DIRECT_JUMP: 0
BRANCH_INDIRECT: 0
BRANCH_CONDITIONAL: 0.0152
BRANCH_DIRECT_CALL: 0
BRANCH_INDIRECT_CALL: 0
BRANCH_RETURN: 0

LLC TOTAL        ACCESS:     233646 HIT:       5934 MISS:     227712
LLC LOAD         ACCESS:     221833 HIT:          4 MISS:     221829
LLC RFO          ACCESS:       5838 HIT:          0 MISS:       5838
LLC PREFETCH     ACCESS:          0 HIT:          0 MISS:          0
LLC WRITE        ACCESS:       5947 HIT:       5919 MISS:         28
LLC TRANSLATION  ACCESS:         28 HIT:         11 MISS:         17
LLC PREFETCH REQUESTED:          0 ISSUED:          0 USEFUL:          0 USELESS:          0
LLC AVERAGE MISS LATENCY: 1033 cycles
cpu0_DTLB TOTAL        ACCESS:    2775639 HIT:    2760451 MISS:      15188
cpu0_DTLB LOAD         ACCESS:    2775639 HIT:    2760451 MISS:      15188
cpu0_DTLB RFO          ACCESS:          0 HIT:          0 MISS:          0
cpu0_DTLB PREFETCH     ACCESS:          0 HIT:          0 MISS:          0
cpu0_DTLB WRITE        ACCESS:          0 HIT:          0 MISS:          0
cpu0_DTLB TRANSLATION  ACCESS:          0 HIT:          0 MISS:          0
cpu0_DTLB PREFETCH REQUESTED:          0 ISSUED:          0 USEFUL:          0 USELESS:          0
cpu0_DTLB AVERAGE MISS LATENCY: 46.67 cycles
cpu0_ITLB TOTAL        ACCESS:          0 HIT:          0 MISS:          0
cpu0_ITLB LOAD         ACCESS:          0 HIT:          0 MISS:          0
cpu0_ITLB RFO          ACCESS:          0 HIT:          0 MISS:          0
cpu0_ITLB PREFETCH     ACCESS:          0 HIT:          0 MISS:          0
cpu0_ITLB WRITE        ACCESS:          0 HIT:          0 MISS:          0
cpu0_ITLB TRANSLATION  ACCESS:          0 HIT:          0 MISS:          0
cpu0_ITLB PREFETCH REQUESTED:          0 ISSUED:          0 USEFUL:          0 USELESS:          0
cpu0_ITLB AVERAGE MISS LATENCY: -nan cycles
cpu0_L1D TOTAL        ACCESS:    3220764 HIT:    2747937 MISS:     472827
cpu0_L1D LOAD         ACCESS:    2942457 HIT:    2487021 MISS:     455436
cpu0_L1D RFO          ACCESS:          0 HIT:          0 MISS:          0
cpu0_L1D PREFETCH     ACCESS:          0 HIT:          0 MISS:          0
cpu0_L1D WRITE        ACCESS:     274849 HIT:     260905 MISS:      13944
cpu0_L1D TRANSLATION  ACCESS:       3458 HIT:         11 MISS:       3447
cpu0_L1D PREFETCH REQUESTED:          0 ISSUED:          0 USEFUL:          0 USELESS:          0
cpu0_L1D AVERAGE MISS LATENCY: 328.7 cycles
cpu0_L1I TOTAL        ACCESS:          0 HIT:          0 MISS:          0
cpu0_L1I LOAD         ACCESS:          0 HIT:          0 MISS:          0
cpu0_L1I RFO          ACCESS:          0 HIT:          0 MISS:          0
cpu0_L1I PREFETCH     ACCESS:          0 HIT:          0 MISS:          0
cpu0_L1I WRITE        ACCESS:          0 HIT:          0 MISS:          0
cpu0_L1I TRANSLATION  ACCESS:          0 HIT:          0 MISS:          0
cpu0_L1I PREFETCH REQUESTED:          0 ISSUED:          0 USEFUL:          0 USELESS:          0
cpu0_L1I AVERAGE MISS LATENCY: -nan cycles
cpu0_L2C TOTAL        ACCESS:     252030 HIT:      24244 MISS:     227786
cpu0_L2C LOAD         ACCESS:     236115 HIT:      14277 MISS:     221838
cpu0_L2C RFO          ACCESS:       5962 HIT:        124 MISS:       5838
cpu0_L2C PREFETCH     ACCESS:          0 HIT:          0 MISS:          0
cpu0_L2C WRITE        ACCESS:       6506 HIT:       6424 MISS:         82
cpu0_L2C TRANSLATION  ACCESS:       3447 HIT:       3419 MISS:         28
cpu0_L2C PREFETCH REQUESTED:          0 ISSUED:          0 USEFUL:          0 USELESS:          0
cpu0_L2C AVERAGE MISS LATENCY: 1054 cycles
cpu0_STLB TOTAL        ACCESS:       8963 HIT:       5510 MISS:       3453
cpu0_STLB LOAD         ACCESS:       8963 HIT:       5510 MISS:       3453
cpu0_STLB RFO          ACCESS:          0 HIT:          0 MISS:          0
cpu0_STLB PREFETCH     ACCESS:          0 HIT:          0 MISS:          0
cpu0_STLB WRITE        ACCESS:          0 HIT:          0 MISS:          0
cpu0_STLB TRANSLATION  ACCESS:          0 HIT:          0 MISS:          0
cpu0_STLB PREFETCH REQUESTED:          0 ISSUED:          0 USEFUL:          0 USELESS:          0
cpu0_STLB AVERAGE MISS LATENCY: 269.7 cycles

DRAM Statistics

Channel 0 RQ ROW_BUFFER_HIT:     166195
  ROW_BUFFER_MISS:      61489
 AVG DBUS CONGESTED CYCLE: 3.668
WQ ROW_BUFFER_HIT: Channel 0 
  ROW_BUFFER_MISS:       3553
  FULL:       2317
