WARNING: physical memory size is smaller than virtual memory size.

*** ChampSim Multicore Out-of-Order Simulator ***
Warmup Instructions: 10000000
Simulation Instructions: 10000000
Number of CPUs: 1
Page size: 4096

Off-chip DRAM Size: 4 GiB Channels: 1 Width: 64-bit Data Race: 800 MT/s
Heartbeat CPU 0 instructions: 10000000 cycles: 2508554 heartbeat IPC: 3.986 cumulative IPC: 3.986 (Simulation time: 00 hr 01 min 56 sec)
Warmup finished CPU 0 instructions: 10000000 cycles: 2508555 cumulative IPC: 3.986 (Simulation time: 00 hr 01 min 56 sec)
Warmup complete CPU 0 instructions: 10000000 cycles: 2508555 cumulative IPC: 3.986 (Simulation time: 00 hr 01 min 56 sec)
Heartbeat CPU 0 instructions: 20000001 cycles: 28389940 heartbeat IPC: 0.3864 cumulative IPC: 0.3864 (Simulation time: 00 hr 08 min 21 sec)
Simulation finished CPU 0 instructions: 10000001 cycles: 25881386 cumulative IPC: 0.3864 (Simulation time: 00 hr 08 min 21 sec)
Simulation complete CPU 0 instructions: 10000001 cycles: 25881386 cumulative IPC: 0.3864 (Simulation time: 00 hr 08 min 21 sec)

ChampSim completed all CPUs

=== Simulation ===
CPU 0 runs /scratch/cluster/hill/traces/spec2006/GemsFDTD_716B.trace.xz
Region of Interest Statistics

CPU 0 cumulative IPC: 0.3864 instructions: 10000001 cycles: 25881386
CPU 0 Branch Prediction Accuracy: 99.44% MPKI: 0.0351 Average ROB Occupancy at Mispredict: 347.6
Branch type MPKI
BRANCH_DIRECT_JUMP: 0
BRANCH_INDIRECT: 0
BRANCH_CONDITIONAL: 0.0351
BRANCH_DIRECT_CALL: 0
BRANCH_INDIRECT_CALL: 0
BRANCH_RETURN: 0

LLC TOTAL        ACCESS:     506557 HIT:     172747 MISS:     333810
LLC LOAD         ACCESS:     409896 HIT:     130761 MISS:     279135
LLC RFO          ACCESS:          0 HIT:          0 MISS:          0
LLC PREFETCH     ACCESS:          0 HIT:          0 MISS:          0
LLC WRITE        ACCESS:      39276 HIT:      37917 MISS:       1359
LLC TRANSLATION  ACCESS:      57385 HIT:       4069 MISS:      53316
LLC PREFETCH REQUESTED:          0 ISSUED:          0 USEFUL:          0 USELESS:          0
LLC AVERAGE MISS LATENCY: 460.5 cycles
cpu0_DTLB TOTAL        ACCESS:    2754327 HIT:    2424537 MISS:     329790
cpu0_DTLB LOAD         ACCESS:    2754327 HIT:    2424537 MISS:     329790
cpu0_DTLB RFO          ACCESS:          0 HIT:          0 MISS:          0
cpu0_DTLB PREFETCH     ACCESS:          0 HIT:          0 MISS:          0
cpu0_DTLB WRITE        ACCESS:          0 HIT:          0 MISS:          0
cpu0_DTLB TRANSLATION  ACCESS:          0 HIT:          0 MISS:          0
cpu0_DTLB PREFETCH REQUESTED:          0 ISSUED:          0 USEFUL:          0 USELESS:          0
cpu0_DTLB AVERAGE MISS LATENCY: 136.6 cycles
cpu0_ITLB TOTAL        ACCESS:         64 HIT:         56 MISS:          8
cpu0_ITLB LOAD         ACCESS:         64 HIT:         56 MISS:          8
cpu0_ITLB RFO          ACCESS:          0 HIT:          0 MISS:          0
cpu0_ITLB PREFETCH     ACCESS:          0 HIT:          0 MISS:          0
cpu0_ITLB WRITE        ACCESS:          0 HIT:          0 MISS:          0
cpu0_ITLB TRANSLATION  ACCESS:          0 HIT:          0 MISS:          0
cpu0_ITLB PREFETCH REQUESTED:          0 ISSUED:          0 USEFUL:          0 USELESS:          0
cpu0_ITLB AVERAGE MISS LATENCY: 135.2 cycles
cpu0_L1D TOTAL        ACCESS:    3493883 HIT:    2406005 MISS:    1087878
cpu0_L1D LOAD         ACCESS:    2147457 HIT:    1148835 MISS:     998622
cpu0_L1D RFO          ACCESS:          0 HIT:          0 MISS:          0
cpu0_L1D PREFETCH     ACCESS:          0 HIT:          0 MISS:          0
cpu0_L1D WRITE        ACCESS:    1259638 HIT:    1250864 MISS:       8774
cpu0_L1D TRANSLATION  ACCESS:      86788 HIT:       6306 MISS:      80482
cpu0_L1D PREFETCH REQUESTED:          0 ISSUED:          0 USEFUL:          0 USELESS:          0
cpu0_L1D AVERAGE MISS LATENCY: 160.3 cycles
cpu0_L1I TOTAL        ACCESS:         85 HIT:          7 MISS:         78
cpu0_L1I LOAD         ACCESS:         85 HIT:          7 MISS:         78
cpu0_L1I RFO          ACCESS:          0 HIT:          0 MISS:          0
cpu0_L1I PREFETCH     ACCESS:          0 HIT:          0 MISS:          0
cpu0_L1I WRITE        ACCESS:          0 HIT:          0 MISS:          0
cpu0_L1I TRANSLATION  ACCESS:          0 HIT:          0 MISS:          0
cpu0_L1I PREFETCH REQUESTED:          0 ISSUED:          0 USEFUL:          0 USELESS:          0
cpu0_L1I AVERAGE MISS LATENCY: 261.5 cycles
cpu0_L2C TOTAL        ACCESS:    1283057 HIT:     815763 MISS:     467294
cpu0_L2C LOAD         ACCESS:     972043 HIT:     562139 MISS:     409904
cpu0_L2C RFO          ACCESS:       2139 HIT:       2139 MISS:          0
cpu0_L2C PREFETCH     ACCESS:          0 HIT:          0 MISS:          0
cpu0_L2C WRITE        ACCESS:     228633 HIT:     228628 MISS:          5
cpu0_L2C TRANSLATION  ACCESS:      80242 HIT:      22857 MISS:      57385
cpu0_L2C PREFETCH REQUESTED:          0 ISSUED:          0 USEFUL:          0 USELESS:          0
cpu0_L2C AVERAGE MISS LATENCY: 349.6 cycles
cpu0_STLB TOTAL        ACCESS:     316062 HIT:     256659 MISS:      59403
cpu0_STLB LOAD         ACCESS:     316062 HIT:     256659 MISS:      59403
cpu0_STLB RFO          ACCESS:          0 HIT:          0 MISS:          0
cpu0_STLB PREFETCH     ACCESS:          0 HIT:          0 MISS:          0
cpu0_STLB WRITE        ACCESS:          0 HIT:          0 MISS:          0
cpu0_STLB TRANSLATION  ACCESS:          0 HIT:          0 MISS:          0
cpu0_STLB PREFETCH REQUESTED:          0 ISSUED:          0 USEFUL:          0 USELESS:          0
cpu0_STLB AVERAGE MISS LATENCY: 753.1 cycles

DRAM Statistics

Channel 0 RQ ROW_BUFFER_HIT:      95977
  ROW_BUFFER_MISS:     236445
 AVG DBUS CONGESTED CYCLE: 3.816
WQ ROW_BUFFER_HIT: Channel 0 
  ROW_BUFFER_MISS:         83
  FULL:       1330
