WARNING: physical memory size is smaller than virtual memory size.

*** ChampSim Multicore Out-of-Order Simulator ***
Warmup Instructions: 10000000
Simulation Instructions: 10000000
Number of CPUs: 1
Page size: 4096

Off-chip DRAM Size: 4 GiB Channels: 1 Width: 64-bit Data Race: 800 MT/s
Heartbeat CPU 0 instructions: 10000003 cycles: 2500087 heartbeat IPC: 4 cumulative IPC: 4 (Simulation time: 00 hr 03 min 06 sec)
Warmup finished CPU 0 instructions: 10000003 cycles: 2500088 cumulative IPC: 4 (Simulation time: 00 hr 03 min 06 sec)
Warmup complete CPU 0 instructions: 10000003 cycles: 2500088 cumulative IPC: 4 (Simulation time: 00 hr 03 min 06 sec)
Heartbeat CPU 0 instructions: 20000001 cycles: 5562040 heartbeat IPC: 3.266 cumulative IPC: 3.266 (Simulation time: 00 hr 06 min 20 sec)
Simulation finished CPU 0 instructions: 10000002 cycles: 3061954 cumulative IPC: 3.266 (Simulation time: 00 hr 06 min 20 sec)
Simulation complete CPU 0 instructions: 10000002 cycles: 3061954 cumulative IPC: 3.266 (Simulation time: 00 hr 06 min 20 sec)

ChampSim completed all CPUs

=== Simulation ===
CPU 0 runs /scratch/cluster/hill/traces/spec2006/gcc_39B.trace.xz
Region of Interest Statistics

CPU 0 cumulative IPC: 3.266 instructions: 10000002 cycles: 3061954
CPU 0 Branch Prediction Accuracy: 99.46% MPKI: 1.237 Average ROB Occupancy at Mispredict: 42.31
Branch type MPKI
BRANCH_DIRECT_JUMP: 0.0068
BRANCH_INDIRECT: 0.0002
BRANCH_CONDITIONAL: 1.22
BRANCH_DIRECT_CALL: 0.0016
BRANCH_INDIRECT_CALL: 0.0004
BRANCH_RETURN: 0.0046

LLC TOTAL        ACCESS:       3035 HIT:        470 MISS:       2565
LLC LOAD         ACCESS:       2152 HIT:         10 MISS:       2142
LLC RFO          ACCESS:        325 HIT:          0 MISS:        325
LLC PREFETCH     ACCESS:          0 HIT:          0 MISS:          0
LLC WRITE        ACCESS:        443 HIT:        443 MISS:          0
LLC TRANSLATION  ACCESS:        115 HIT:         17 MISS:         98
LLC PREFETCH REQUESTED:          0 ISSUED:          0 USEFUL:          0 USELESS:          0
LLC AVERAGE MISS LATENCY: 209.4 cycles
cpu0_DTLB TOTAL        ACCESS:    2210174 HIT:    2207213 MISS:       2961
cpu0_DTLB LOAD         ACCESS:    2210174 HIT:    2207213 MISS:       2961
cpu0_DTLB RFO          ACCESS:          0 HIT:          0 MISS:          0
cpu0_DTLB PREFETCH     ACCESS:          0 HIT:          0 MISS:          0
cpu0_DTLB WRITE        ACCESS:          0 HIT:          0 MISS:          0
cpu0_DTLB TRANSLATION  ACCESS:          0 HIT:          0 MISS:          0
cpu0_DTLB PREFETCH REQUESTED:          0 ISSUED:          0 USEFUL:          0 USELESS:          0
cpu0_DTLB AVERAGE MISS LATENCY: 35.95 cycles
cpu0_ITLB TOTAL        ACCESS:       1067 HIT:       1067 MISS:          0
cpu0_ITLB LOAD         ACCESS:       1067 HIT:       1067 MISS:          0
cpu0_ITLB RFO          ACCESS:          0 HIT:          0 MISS:          0
cpu0_ITLB PREFETCH     ACCESS:          0 HIT:          0 MISS:          0
cpu0_ITLB WRITE        ACCESS:          0 HIT:          0 MISS:          0
cpu0_ITLB TRANSLATION  ACCESS:          0 HIT:          0 MISS:          0
cpu0_ITLB PREFETCH REQUESTED:          0 ISSUED:          0 USEFUL:          0 USELESS:          0
cpu0_ITLB AVERAGE MISS LATENCY: -nan cycles
cpu0_L1D TOTAL        ACCESS:    3080477 HIT:    2966577 MISS:     113900
cpu0_L1D LOAD         ACCESS:    1315681 HIT:    1204284 MISS:     111397
cpu0_L1D RFO          ACCESS:          0 HIT:          0 MISS:          0
cpu0_L1D PREFETCH     ACCESS:          0 HIT:          0 MISS:          0
cpu0_L1D WRITE        ACCESS:    1764481 HIT:    1762289 MISS:       2192
cpu0_L1D TRANSLATION  ACCESS:        315 HIT:          4 MISS:        311
cpu0_L1D PREFETCH REQUESTED:          0 ISSUED:          0 USEFUL:          0 USELESS:          0
cpu0_L1D AVERAGE MISS LATENCY: 12.4 cycles
cpu0_L1I TOTAL        ACCESS:       1166 HIT:       1165 MISS:          1
cpu0_L1I LOAD         ACCESS:       1166 HIT:       1165 MISS:          1
cpu0_L1I RFO          ACCESS:          0 HIT:          0 MISS:          0
cpu0_L1I PREFETCH     ACCESS:          0 HIT:          0 MISS:          0
cpu0_L1I WRITE        ACCESS:          0 HIT:          0 MISS:          0
cpu0_L1I TRANSLATION  ACCESS:          0 HIT:          0 MISS:          0
cpu0_L1I PREFETCH REQUESTED:          0 ISSUED:          0 USEFUL:          0 USELESS:          0
cpu0_L1I AVERAGE MISS LATENCY: 238 cycles
cpu0_L2C TOTAL        ACCESS:      97018 HIT:      94424 MISS:       2594
cpu0_L2C LOAD         ACCESS:      93515 HIT:      91363 MISS:       2152
cpu0_L2C RFO          ACCESS:        523 HIT:        198 MISS:        325
cpu0_L2C PREFETCH     ACCESS:          0 HIT:          0 MISS:          0
cpu0_L2C WRITE        ACCESS:       2669 HIT:       2667 MISS:          2
cpu0_L2C TRANSLATION  ACCESS:        311 HIT:        196 MISS:        115
cpu0_L2C PREFETCH REQUESTED:          0 ISSUED:          0 USEFUL:          0 USELESS:          0
cpu0_L2C AVERAGE MISS LATENCY: 228 cycles
cpu0_STLB TOTAL        ACCESS:       2241 HIT:       1931 MISS:        310
cpu0_STLB LOAD         ACCESS:       2241 HIT:       1931 MISS:        310
cpu0_STLB RFO          ACCESS:          0 HIT:          0 MISS:          0
cpu0_STLB PREFETCH     ACCESS:          0 HIT:          0 MISS:          0
cpu0_STLB WRITE        ACCESS:          0 HIT:          0 MISS:          0
cpu0_STLB TRANSLATION  ACCESS:          0 HIT:          0 MISS:          0
cpu0_STLB PREFETCH REQUESTED:          0 ISSUED:          0 USEFUL:          0 USELESS:          0
cpu0_STLB AVERAGE MISS LATENCY: 300.2 cycles

DRAM Statistics

Channel 0 RQ ROW_BUFFER_HIT:        374
  ROW_BUFFER_MISS:       2191
 AVG DBUS CONGESTED CYCLE: 3.647
WQ ROW_BUFFER_HIT: Channel 0 
  ROW_BUFFER_MISS:          0
  FULL:          0
