WARNING: physical memory size is smaller than virtual memory size.

*** ChampSim Multicore Out-of-Order Simulator ***
Warmup Instructions: 10000000
Simulation Instructions: 10000000
Number of CPUs: 1
Page size: 4096

Off-chip DRAM Size: 4 GiB Channels: 1 Width: 64-bit Data Race: 800 MT/s
Heartbeat CPU 0 instructions: 10000002 cycles: 2500115 heartbeat IPC: 4 cumulative IPC: 4 (Simulation time: 00 hr 02 min 04 sec)
Warmup finished CPU 0 instructions: 10000002 cycles: 2500116 cumulative IPC: 4 (Simulation time: 00 hr 02 min 04 sec)
Warmup complete CPU 0 instructions: 10000002 cycles: 2500116 cumulative IPC: 4 (Simulation time: 00 hr 02 min 04 sec)
Heartbeat CPU 0 instructions: 20000000 cycles: 38784278 heartbeat IPC: 0.2756 cumulative IPC: 0.2756 (Simulation time: 00 hr 08 min 38 sec)
Simulation finished CPU 0 instructions: 10000002 cycles: 36284164 cumulative IPC: 0.2756 (Simulation time: 00 hr 08 min 38 sec)
Simulation complete CPU 0 instructions: 10000002 cycles: 36284164 cumulative IPC: 0.2756 (Simulation time: 00 hr 08 min 38 sec)

ChampSim completed all CPUs

=== Simulation ===
CPU 0 runs /scratch/cluster/hill/traces/spec2006/GemsFDTD_109B.trace.xz
Region of Interest Statistics

CPU 0 cumulative IPC: 0.2756 instructions: 10000002 cycles: 36284164
CPU 0 Branch Prediction Accuracy: 97.53% MPKI: 0.4084 Average ROB Occupancy at Mispredict: 176.3
Branch type MPKI
BRANCH_DIRECT_JUMP: 0.0007
BRANCH_INDIRECT: 0.0001
BRANCH_CONDITIONAL: 0.28
BRANCH_DIRECT_CALL: 0.0007
BRANCH_INDIRECT_CALL: 0
BRANCH_RETURN: 0.127

LLC TOTAL        ACCESS:     387726 HIT:     136087 MISS:     251639
LLC LOAD         ACCESS:     242527 HIT:        175 MISS:     242352
LLC RFO          ACCESS:       9345 HIT:        170 MISS:       9175
LLC PREFETCH     ACCESS:          0 HIT:          0 MISS:          0
LLC WRITE        ACCESS:     135627 HIT:     135613 MISS:         14
LLC TRANSLATION  ACCESS:        227 HIT:        129 MISS:         98
LLC PREFETCH REQUESTED:          0 ISSUED:          0 USEFUL:          0 USELESS:          0
LLC AVERAGE MISS LATENCY: 1180 cycles
cpu0_DTLB TOTAL        ACCESS:    3097268 HIT:    3087458 MISS:       9810
cpu0_DTLB LOAD         ACCESS:    3097268 HIT:    3087458 MISS:       9810
cpu0_DTLB RFO          ACCESS:          0 HIT:          0 MISS:          0
cpu0_DTLB PREFETCH     ACCESS:          0 HIT:          0 MISS:          0
cpu0_DTLB WRITE        ACCESS:          0 HIT:          0 MISS:          0
cpu0_DTLB TRANSLATION  ACCESS:          0 HIT:          0 MISS:          0
cpu0_DTLB PREFETCH REQUESTED:          0 ISSUED:          0 USEFUL:          0 USELESS:          0
cpu0_DTLB AVERAGE MISS LATENCY: 65.55 cycles
cpu0_ITLB TOTAL        ACCESS:        102 HIT:         83 MISS:         19
cpu0_ITLB LOAD         ACCESS:        102 HIT:         83 MISS:         19
cpu0_ITLB RFO          ACCESS:          0 HIT:          0 MISS:          0
cpu0_ITLB PREFETCH     ACCESS:          0 HIT:          0 MISS:          0
cpu0_ITLB WRITE        ACCESS:          0 HIT:          0 MISS:          0
cpu0_ITLB TRANSLATION  ACCESS:          0 HIT:          0 MISS:          0
cpu0_ITLB PREFETCH REQUESTED:          0 ISSUED:          0 USEFUL:          0 USELESS:          0
cpu0_ITLB AVERAGE MISS LATENCY: 263.3 cycles
cpu0_L1D TOTAL        ACCESS:    3974236 HIT:    2825346 MISS:    1148890
cpu0_L1D LOAD         ACCESS:    2840912 HIT:    1769494 MISS:    1071418
cpu0_L1D RFO          ACCESS:          0 HIT:          0 MISS:          0
cpu0_L1D PREFETCH     ACCESS:          0 HIT:          0 MISS:          0
cpu0_L1D WRITE        ACCESS:    1129868 HIT:    1055638 MISS:      74230
cpu0_L1D TRANSLATION  ACCESS:       3456 HIT:        214 MISS:       3242
cpu0_L1D PREFETCH REQUESTED:          0 ISSUED:          0 USEFUL:          0 USELESS:          0
cpu0_L1D AVERAGE MISS LATENCY: 135.4 cycles
cpu0_L1I TOTAL        ACCESS:        119 HIT:         29 MISS:         90
cpu0_L1I LOAD         ACCESS:        119 HIT:         29 MISS:         90
cpu0_L1I RFO          ACCESS:          0 HIT:          0 MISS:          0
cpu0_L1I PREFETCH     ACCESS:          0 HIT:          0 MISS:          0
cpu0_L1I WRITE        ACCESS:          0 HIT:          0 MISS:          0
cpu0_L1I TRANSLATION  ACCESS:          0 HIT:          0 MISS:          0
cpu0_L1I PREFETCH REQUESTED:          0 ISSUED:          0 USEFUL:          0 USELESS:          0
cpu0_L1I AVERAGE MISS LATENCY: 351.2 cycles
cpu0_L2C TOTAL        ACCESS:     450134 HIT:     198029 MISS:     252105
cpu0_L2C LOAD         ACCESS:     296994 HIT:      54467 MISS:     242527
cpu0_L2C RFO          ACCESS:      10034 HIT:        689 MISS:       9345
cpu0_L2C PREFETCH     ACCESS:          0 HIT:          0 MISS:          0
cpu0_L2C WRITE        ACCESS:     139864 HIT:     139858 MISS:          6
cpu0_L2C TRANSLATION  ACCESS:       3242 HIT:       3015 MISS:        227
cpu0_L2C PREFETCH REQUESTED:          0 ISSUED:          0 USEFUL:          0 USELESS:          0
cpu0_L2C AVERAGE MISS LATENCY: 1199 cycles
cpu0_STLB TOTAL        ACCESS:       4207 HIT:        757 MISS:       3450
cpu0_STLB LOAD         ACCESS:       4207 HIT:        757 MISS:       3450
cpu0_STLB RFO          ACCESS:          0 HIT:          0 MISS:          0
cpu0_STLB PREFETCH     ACCESS:          0 HIT:          0 MISS:          0
cpu0_STLB WRITE        ACCESS:          0 HIT:          0 MISS:          0
cpu0_STLB TRANSLATION  ACCESS:          0 HIT:          0 MISS:          0
cpu0_STLB PREFETCH REQUESTED:          0 ISSUED:          0 USEFUL:          0 USELESS:          0
cpu0_STLB AVERAGE MISS LATENCY: 258.6 cycles

DRAM Statistics

Channel 0 RQ ROW_BUFFER_HIT:     118515
  ROW_BUFFER_MISS:     133110
 AVG DBUS CONGESTED CYCLE: 3.904
WQ ROW_BUFFER_HIT: Channel 0 
  ROW_BUFFER_MISS:      10122
  FULL:     125570
