WARNING: physical memory size is smaller than virtual memory size.

*** ChampSim Multicore Out-of-Order Simulator ***
Warmup Instructions: 10000000
Simulation Instructions: 10000000
Number of CPUs: 1
Page size: 4096

Off-chip DRAM Size: 4 GiB Channels: 1 Width: 64-bit Data Race: 800 MT/s
Heartbeat CPU 0 instructions: 10000000 cycles: 2578266 heartbeat IPC: 3.879 cumulative IPC: 3.879 (Simulation time: 00 hr 03 min 07 sec)
Warmup finished CPU 0 instructions: 10000000 cycles: 2578267 cumulative IPC: 3.879 (Simulation time: 00 hr 03 min 07 sec)
Warmup complete CPU 0 instructions: 10000000 cycles: 2578267 cumulative IPC: 3.879 (Simulation time: 00 hr 03 min 07 sec)
Heartbeat CPU 0 instructions: 20000002 cycles: 37203131 heartbeat IPC: 0.2888 cumulative IPC: 0.2888 (Simulation time: 00 hr 09 min 25 sec)
Simulation finished CPU 0 instructions: 10000002 cycles: 34624865 cumulative IPC: 0.2888 (Simulation time: 00 hr 09 min 25 sec)
Simulation complete CPU 0 instructions: 10000002 cycles: 34624865 cumulative IPC: 0.2888 (Simulation time: 00 hr 09 min 25 sec)

ChampSim completed all CPUs

=== Simulation ===
CPU 0 runs /scratch/cluster/hill/traces/spec2006/soplex_66B.trace.xz
Region of Interest Statistics

CPU 0 cumulative IPC: 0.2888 instructions: 10000002 cycles: 34624865
CPU 0 Branch Prediction Accuracy: 93.96% MPKI: 14.52 Average ROB Occupancy at Mispredict: 35.97
Branch type MPKI
BRANCH_DIRECT_JUMP: 0.0454
BRANCH_INDIRECT: 0.0002
BRANCH_CONDITIONAL: 14.5
BRANCH_DIRECT_CALL: 0
BRANCH_INDIRECT_CALL: 0.0004
BRANCH_RETURN: 0.0006

LLC TOTAL        ACCESS:     516865 HIT:     241684 MISS:     275181
LLC LOAD         ACCESS:     317471 HIT:      79026 MISS:     238445
LLC RFO          ACCESS:      46853 HIT:      12627 MISS:      34226
LLC PREFETCH     ACCESS:          0 HIT:          0 MISS:          0
LLC WRITE        ACCESS:     148047 HIT:     148046 MISS:          1
LLC TRANSLATION  ACCESS:       4494 HIT:       1985 MISS:       2509
LLC PREFETCH REQUESTED:          0 ISSUED:          0 USEFUL:          0 USELESS:          0
LLC AVERAGE MISS LATENCY: 829.9 cycles
cpu0_DTLB TOTAL        ACCESS:    1992343 HIT:    1905820 MISS:      86523
cpu0_DTLB LOAD         ACCESS:    1992343 HIT:    1905820 MISS:      86523
cpu0_DTLB RFO          ACCESS:          0 HIT:          0 MISS:          0
cpu0_DTLB PREFETCH     ACCESS:          0 HIT:          0 MISS:          0
cpu0_DTLB WRITE        ACCESS:          0 HIT:          0 MISS:          0
cpu0_DTLB TRANSLATION  ACCESS:          0 HIT:          0 MISS:          0
cpu0_DTLB PREFETCH REQUESTED:          0 ISSUED:          0 USEFUL:          0 USELESS:          0
cpu0_DTLB AVERAGE MISS LATENCY: 29.79 cycles
cpu0_ITLB TOTAL        ACCESS:        674 HIT:        674 MISS:          0
cpu0_ITLB LOAD         ACCESS:        674 HIT:        674 MISS:          0
cpu0_ITLB RFO          ACCESS:          0 HIT:          0 MISS:          0
cpu0_ITLB PREFETCH     ACCESS:          0 HIT:          0 MISS:          0
cpu0_ITLB WRITE        ACCESS:          0 HIT:          0 MISS:          0
cpu0_ITLB TRANSLATION  ACCESS:          0 HIT:          0 MISS:          0
cpu0_ITLB PREFETCH REQUESTED:          0 ISSUED:          0 USEFUL:          0 USELESS:          0
cpu0_ITLB AVERAGE MISS LATENCY: -nan cycles
cpu0_L1D TOTAL        ACCESS:    2280901 HIT:    1259634 MISS:    1021267
cpu0_L1D LOAD         ACCESS:    1665978 HIT:     822936 MISS:     843042
cpu0_L1D RFO          ACCESS:          0 HIT:          0 MISS:          0
cpu0_L1D PREFETCH     ACCESS:          0 HIT:          0 MISS:          0
cpu0_L1D WRITE        ACCESS:     605218 HIT:     434229 MISS:     170989
cpu0_L1D TRANSLATION  ACCESS:       9705 HIT:       2469 MISS:       7236
cpu0_L1D PREFETCH REQUESTED:          0 ISSUED:          0 USEFUL:          0 USELESS:          0
cpu0_L1D AVERAGE MISS LATENCY: 228.6 cycles
cpu0_L1I TOTAL        ACCESS:        774 HIT:        717 MISS:         57
cpu0_L1I LOAD         ACCESS:        774 HIT:        717 MISS:         57
cpu0_L1I RFO          ACCESS:          0 HIT:          0 MISS:          0
cpu0_L1I PREFETCH     ACCESS:          0 HIT:          0 MISS:          0
cpu0_L1I WRITE        ACCESS:          0 HIT:          0 MISS:          0
cpu0_L1I TRANSLATION  ACCESS:          0 HIT:          0 MISS:          0
cpu0_L1I PREFETCH REQUESTED:          0 ISSUED:          0 USEFUL:          0 USELESS:          0
cpu0_L1I AVERAGE MISS LATENCY: 160.4 cycles
cpu0_L2C TOTAL        ACCESS:     612540 HIT:     243646 MISS:     368894
cpu0_L2C LOAD         ACCESS:     368770 HIT:      51299 MISS:     317471
cpu0_L2C RFO          ACCESS:      55344 HIT:       8491 MISS:      46853
cpu0_L2C PREFETCH     ACCESS:          0 HIT:          0 MISS:          0
cpu0_L2C WRITE        ACCESS:     181298 HIT:     181222 MISS:         76
cpu0_L2C TRANSLATION  ACCESS:       7128 HIT:       2634 MISS:       4494
cpu0_L2C PREFETCH REQUESTED:          0 ISSUED:          0 USEFUL:          0 USELESS:          0
cpu0_L2C AVERAGE MISS LATENCY: 639.8 cycles
cpu0_STLB TOTAL        ACCESS:      39487 HIT:      29812 MISS:       9675
cpu0_STLB LOAD         ACCESS:      39487 HIT:      29812 MISS:       9675
cpu0_STLB RFO          ACCESS:          0 HIT:          0 MISS:          0
cpu0_STLB PREFETCH     ACCESS:          0 HIT:          0 MISS:          0
cpu0_STLB WRITE        ACCESS:          0 HIT:          0 MISS:          0
cpu0_STLB TRANSLATION  ACCESS:          0 HIT:          0 MISS:          0
cpu0_STLB PREFETCH REQUESTED:          0 ISSUED:          0 USEFUL:          0 USELESS:          0
cpu0_STLB AVERAGE MISS LATENCY: 312.9 cycles

DRAM Statistics

Channel 0 RQ ROW_BUFFER_HIT:      78283
  ROW_BUFFER_MISS:     196774
 AVG DBUS CONGESTED CYCLE: 3.936
WQ ROW_BUFFER_HIT: Channel 0 
  ROW_BUFFER_MISS:       8280
  FULL:      99012
