WARNING: physical memory size is smaller than virtual memory size.

*** ChampSim Multicore Out-of-Order Simulator ***
Warmup Instructions: 1000000
Simulation Instructions: 1000000
Number of CPUs: 1
Page size: 4096

Off-chip DRAM Size: 4 GiB Channels: 1 Width: 64-bit Data Race: 800 MT/s
Warmup finished CPU 0 instructions: 1000000 cycles: 250070 cumulative IPC: 3.999 (Simulation time: 00 hr 00 min 05 sec)
Warmup complete CPU 0 instructions: 1000000 cycles: 250070 cumulative IPC: 3.999 (Simulation time: 00 hr 00 min 05 sec)
Simulation finished CPU 0 instructions: 1000001 cycles: 1093512 cumulative IPC: 0.9145 (Simulation time: 00 hr 00 min 15 sec)
Simulation complete CPU 0 instructions: 1000001 cycles: 1093512 cumulative IPC: 0.9145 (Simulation time: 00 hr 00 min 15 sec)

ChampSim completed all CPUs

=== Simulation ===
CPU 0 runs /scratch/cluster/hill/traces/spec2006/sphinx3_1339B.trace.xz
Region of Interest Statistics

CPU 0 cumulative IPC: 0.9145 instructions: 1000001 cycles: 1093512
CPU 0 Branch Prediction Accuracy: 93.33% MPKI: 4.335 Average ROB Occupancy at Mispredict: 267.8
Branch type MPKI
BRANCH_DIRECT_JUMP: 0.147
BRANCH_INDIRECT: 0
BRANCH_CONDITIONAL: 4.14
BRANCH_DIRECT_CALL: 0.006
BRANCH_INDIRECT_CALL: 0
BRANCH_RETURN: 0.038

LLC TOTAL        ACCESS:      15332 HIT:       1239 MISS:      14093
LLC LOAD         ACCESS:      14202 HIT:        787 MISS:      13415
LLC RFO          ACCESS:        475 HIT:          0 MISS:        475
LLC PREFETCH     ACCESS:          0 HIT:          0 MISS:          0
LLC WRITE        ACCESS:        440 HIT:        440 MISS:          0
LLC TRANSLATION  ACCESS:        215 HIT:         12 MISS:        203
LLC PREFETCH REQUESTED:          0 ISSUED:          0 USEFUL:          0 USELESS:          0
LLC AVERAGE MISS LATENCY: 260.4 cycles
cpu0_DTLB TOTAL        ACCESS:     193316 HIT:     189053 MISS:       4263
cpu0_DTLB LOAD         ACCESS:     193316 HIT:     189053 MISS:       4263
cpu0_DTLB RFO          ACCESS:          0 HIT:          0 MISS:          0
cpu0_DTLB PREFETCH     ACCESS:          0 HIT:          0 MISS:          0
cpu0_DTLB WRITE        ACCESS:          0 HIT:          0 MISS:          0
cpu0_DTLB TRANSLATION  ACCESS:          0 HIT:          0 MISS:          0
cpu0_DTLB PREFETCH REQUESTED:          0 ISSUED:          0 USEFUL:          0 USELESS:          0
cpu0_DTLB AVERAGE MISS LATENCY: 33.15 cycles
cpu0_ITLB TOTAL        ACCESS:         44 HIT:         38 MISS:          6
cpu0_ITLB LOAD         ACCESS:         44 HIT:         38 MISS:          6
cpu0_ITLB RFO          ACCESS:          0 HIT:          0 MISS:          0
cpu0_ITLB PREFETCH     ACCESS:          0 HIT:          0 MISS:          0
cpu0_ITLB WRITE        ACCESS:          0 HIT:          0 MISS:          0
cpu0_ITLB TRANSLATION  ACCESS:          0 HIT:          0 MISS:          0
cpu0_ITLB PREFETCH REQUESTED:          0 ISSUED:          0 USEFUL:          0 USELESS:          0
cpu0_ITLB AVERAGE MISS LATENCY: 308.2 cycles
cpu0_L1D TOTAL        ACCESS:     233433 HIT:      81642 MISS:     151791
cpu0_L1D LOAD         ACCESS:     218815 HIT:      69481 MISS:     149334
cpu0_L1D RFO          ACCESS:          0 HIT:          0 MISS:          0
cpu0_L1D PREFETCH     ACCESS:          0 HIT:          0 MISS:          0
cpu0_L1D WRITE        ACCESS:      14069 HIT:      11938 MISS:       2131
cpu0_L1D TRANSLATION  ACCESS:        549 HIT:        223 MISS:        326
cpu0_L1D PREFETCH REQUESTED:          0 ISSUED:          0 USEFUL:          0 USELESS:          0
cpu0_L1D AVERAGE MISS LATENCY: 13.69 cycles
cpu0_L1I TOTAL        ACCESS:         52 HIT:         15 MISS:         37
cpu0_L1I LOAD         ACCESS:         52 HIT:         15 MISS:         37
cpu0_L1I RFO          ACCESS:          0 HIT:          0 MISS:          0
cpu0_L1I PREFETCH     ACCESS:          0 HIT:          0 MISS:          0
cpu0_L1I WRITE        ACCESS:          0 HIT:          0 MISS:          0
cpu0_L1I TRANSLATION  ACCESS:          0 HIT:          0 MISS:          0
cpu0_L1I PREFETCH REQUESTED:          0 ISSUED:          0 USEFUL:          0 USELESS:          0
cpu0_L1I AVERAGE MISS LATENCY: 183.5 cycles
cpu0_L2C TOTAL        ACCESS:      16830 HIT:       1936 MISS:      14894
cpu0_L2C LOAD         ACCESS:      15549 HIT:       1347 MISS:      14202
cpu0_L2C RFO          ACCESS:        477 HIT:          2 MISS:        475
cpu0_L2C PREFETCH     ACCESS:          0 HIT:          0 MISS:          0
cpu0_L2C WRITE        ACCESS:        492 HIT:        490 MISS:          2
cpu0_L2C TRANSLATION  ACCESS:        312 HIT:         97 MISS:        215
cpu0_L2C PREFETCH REQUESTED:          0 ISSUED:          0 USEFUL:          0 USELESS:          0
cpu0_L2C AVERAGE MISS LATENCY: 267.4 cycles
cpu0_STLB TOTAL        ACCESS:       1090 HIT:        550 MISS:        540
cpu0_STLB LOAD         ACCESS:       1090 HIT:        550 MISS:        540
cpu0_STLB RFO          ACCESS:          0 HIT:          0 MISS:          0
cpu0_STLB PREFETCH     ACCESS:          0 HIT:          0 MISS:          0
cpu0_STLB WRITE        ACCESS:          0 HIT:          0 MISS:          0
cpu0_STLB TRANSLATION  ACCESS:          0 HIT:          0 MISS:          0
cpu0_STLB PREFETCH REQUESTED:          0 ISSUED:          0 USEFUL:          0 USELESS:          0
cpu0_STLB AVERAGE MISS LATENCY: 372 cycles

DRAM Statistics

Channel 0 RQ ROW_BUFFER_HIT:      11108
  ROW_BUFFER_MISS:       2985
 AVG DBUS CONGESTED CYCLE: 3.871
WQ ROW_BUFFER_HIT: Channel 0 
  ROW_BUFFER_MISS:          3
  FULL:          0
