WARNING: physical memory size is smaller than virtual memory size.

*** ChampSim Multicore Out-of-Order Simulator ***
Warmup Instructions: 1000000
Simulation Instructions: 1000000
Number of CPUs: 1
Page size: 4096

Off-chip DRAM Size: 4 GiB Channels: 1 Width: 64-bit Data Race: 800 MT/s
Warmup finished CPU 0 instructions: 1000001 cycles: 253981 cumulative IPC: 3.937 (Simulation time: 00 hr 00 min 03 sec)
Warmup complete CPU 0 instructions: 1000001 cycles: 253981 cumulative IPC: 3.937 (Simulation time: 00 hr 00 min 03 sec)
Simulation finished CPU 0 instructions: 1000001 cycles: 479232 cumulative IPC: 2.087 (Simulation time: 00 hr 00 min 09 sec)
Simulation complete CPU 0 instructions: 1000001 cycles: 479232 cumulative IPC: 2.087 (Simulation time: 00 hr 00 min 09 sec)

ChampSim completed all CPUs

=== Simulation ===
CPU 0 runs /scratch/cluster/hill/traces/spec2006/zeusmp_600B.trace.xz
Region of Interest Statistics

CPU 0 cumulative IPC: 2.087 instructions: 1000001 cycles: 479232
CPU 0 Branch Prediction Accuracy: 97.13% MPKI: 1.086 Average ROB Occupancy at Mispredict: 257.3
Branch type MPKI
BRANCH_DIRECT_JUMP: 0
BRANCH_INDIRECT: 0
BRANCH_CONDITIONAL: 1.09
BRANCH_DIRECT_CALL: 0
BRANCH_INDIRECT_CALL: 0
BRANCH_RETURN: 0

LLC TOTAL        ACCESS:       4127 HIT:        939 MISS:       3188
LLC LOAD         ACCESS:       3008 HIT:        413 MISS:       2595
LLC RFO          ACCESS:        593 HIT:          0 MISS:        593
LLC PREFETCH     ACCESS:          0 HIT:          0 MISS:          0
LLC WRITE        ACCESS:        524 HIT:        524 MISS:          0
LLC TRANSLATION  ACCESS:          2 HIT:          2 MISS:          0
LLC PREFETCH REQUESTED:          0 ISSUED:          0 USEFUL:          0 USELESS:          0
LLC AVERAGE MISS LATENCY: 425.4 cycles
cpu0_DTLB TOTAL        ACCESS:     189686 HIT:     161084 MISS:      28602
cpu0_DTLB LOAD         ACCESS:     189686 HIT:     161084 MISS:      28602
cpu0_DTLB RFO          ACCESS:          0 HIT:          0 MISS:          0
cpu0_DTLB PREFETCH     ACCESS:          0 HIT:          0 MISS:          0
cpu0_DTLB WRITE        ACCESS:          0 HIT:          0 MISS:          0
cpu0_DTLB TRANSLATION  ACCESS:          0 HIT:          0 MISS:          0
cpu0_DTLB PREFETCH REQUESTED:          0 ISSUED:          0 USEFUL:          0 USELESS:          0
cpu0_DTLB AVERAGE MISS LATENCY: 7.594 cycles
cpu0_ITLB TOTAL        ACCESS:       8712 HIT:       8712 MISS:          0
cpu0_ITLB LOAD         ACCESS:       8712 HIT:       8712 MISS:          0
cpu0_ITLB RFO          ACCESS:          0 HIT:          0 MISS:          0
cpu0_ITLB PREFETCH     ACCESS:          0 HIT:          0 MISS:          0
cpu0_ITLB WRITE        ACCESS:          0 HIT:          0 MISS:          0
cpu0_ITLB TRANSLATION  ACCESS:          0 HIT:          0 MISS:          0
cpu0_ITLB PREFETCH REQUESTED:          0 ISSUED:          0 USEFUL:          0 USELESS:          0
cpu0_ITLB AVERAGE MISS LATENCY: -nan cycles
cpu0_L1D TOTAL        ACCESS:     229157 HIT:     222871 MISS:       6286
cpu0_L1D LOAD         ACCESS:     154716 HIT:     149812 MISS:       4904
cpu0_L1D RFO          ACCESS:          0 HIT:          0 MISS:          0
cpu0_L1D PREFETCH     ACCESS:          0 HIT:          0 MISS:          0
cpu0_L1D WRITE        ACCESS:      74394 HIT:      73059 MISS:       1335
cpu0_L1D TRANSLATION  ACCESS:         47 HIT:          0 MISS:         47
cpu0_L1D PREFETCH REQUESTED:          0 ISSUED:          0 USEFUL:          0 USELESS:          0
cpu0_L1D AVERAGE MISS LATENCY: 237.5 cycles
cpu0_L1I TOTAL        ACCESS:      11757 HIT:      11757 MISS:          0
cpu0_L1I LOAD         ACCESS:      11757 HIT:      11757 MISS:          0
cpu0_L1I RFO          ACCESS:          0 HIT:          0 MISS:          0
cpu0_L1I PREFETCH     ACCESS:          0 HIT:          0 MISS:          0
cpu0_L1I WRITE        ACCESS:          0 HIT:          0 MISS:          0
cpu0_L1I TRANSLATION  ACCESS:          0 HIT:          0 MISS:          0
cpu0_L1I PREFETCH REQUESTED:          0 ISSUED:          0 USEFUL:          0 USELESS:          0
cpu0_L1I AVERAGE MISS LATENCY: -nan cycles
cpu0_L2C TOTAL        ACCESS:       7519 HIT:       3911 MISS:       3608
cpu0_L2C LOAD         ACCESS:       4529 HIT:       1521 MISS:       3008
cpu0_L2C RFO          ACCESS:       1335 HIT:        742 MISS:        593
cpu0_L2C PREFETCH     ACCESS:          0 HIT:          0 MISS:          0
cpu0_L2C WRITE        ACCESS:       1608 HIT:       1603 MISS:          5
cpu0_L2C TRANSLATION  ACCESS:         47 HIT:         45 MISS:          2
cpu0_L2C PREFETCH REQUESTED:          0 ISSUED:          0 USEFUL:          0 USELESS:          0
cpu0_L2C AVERAGE MISS LATENCY: 396.8 cycles
cpu0_STLB TOTAL        ACCESS:      26426 HIT:      26379 MISS:         47
cpu0_STLB LOAD         ACCESS:      26426 HIT:      26379 MISS:         47
cpu0_STLB RFO          ACCESS:          0 HIT:          0 MISS:          0
cpu0_STLB PREFETCH     ACCESS:          0 HIT:          0 MISS:          0
cpu0_STLB WRITE        ACCESS:          0 HIT:          0 MISS:          0
cpu0_STLB TRANSLATION  ACCESS:          0 HIT:          0 MISS:          0
cpu0_STLB PREFETCH REQUESTED:          0 ISSUED:          0 USEFUL:          0 USELESS:          0
cpu0_STLB AVERAGE MISS LATENCY: 232.9 cycles

DRAM Statistics

Channel 0 RQ ROW_BUFFER_HIT:         31
  ROW_BUFFER_MISS:       3157
 AVG DBUS CONGESTED CYCLE: 3.919
WQ ROW_BUFFER_HIT: Channel 0 
  ROW_BUFFER_MISS:          0
  FULL:          0
