WARNING: physical memory size is smaller than virtual memory size.

*** ChampSim Multicore Out-of-Order Simulator ***
Warmup Instructions: 5000000
Simulation Instructions: 5000000
Number of CPUs: 1
Page size: 4096

Off-chip DRAM Size: 4 GiB Channels: 1 Width: 64-bit Data Race: 800 MT/s
Warmup finished CPU 0 instructions: 5000003 cycles: 1327653 cumulative IPC: 3.766 (Simulation time: 00 hr 00 min 55 sec)
Warmup complete CPU 0 instructions: 5000003 cycles: 1327653 cumulative IPC: 3.766 (Simulation time: 00 hr 00 min 55 sec)
