WARNING: physical memory size is smaller than virtual memory size.

*** ChampSim Multicore Out-of-Order Simulator ***
Warmup Instructions: 5000000
Simulation Instructions: 5000000
Number of CPUs: 1
Page size: 4096

Off-chip DRAM Size: 4 GiB Channels: 1 Width: 64-bit Data Race: 800 MT/s
Warmup finished CPU 0 instructions: 5000003 cycles: 1266076 cumulative IPC: 3.949 (Simulation time: 00 hr 00 min 12 sec)
Warmup complete CPU 0 instructions: 5000003 cycles: 1266076 cumulative IPC: 3.949 (Simulation time: 00 hr 00 min 12 sec)
Heartbeat CPU 0 instructions: 10000000 cycles: 3796226 heartbeat IPC: 2.634 cumulative IPC: 1.976 (Simulation time: 00 hr 00 min 29 sec)
Simulation finished CPU 0 instructions: 5000001 cycles: 2530152 cumulative IPC: 1.976 (Simulation time: 00 hr 00 min 29 sec)
Simulation complete CPU 0 instructions: 5000001 cycles: 2530152 cumulative IPC: 1.976 (Simulation time: 00 hr 00 min 29 sec)

ChampSim completed all CPUs

=== Simulation ===
CPU 0 runs /scratch/cluster/hill/traces/spec2006/bzip2_259B.trace.xz
Region of Interest Statistics

CPU 0 cumulative IPC: 1.976 instructions: 5000001 cycles: 2530152
CPU 0 Branch Prediction Accuracy: 89.39% MPKI: 20.09 Average ROB Occupancy at Mispredict: 18.19
Branch type MPKI
BRANCH_DIRECT_JUMP: 0.0002
BRANCH_INDIRECT: 0.0078
BRANCH_CONDITIONAL: 20.1
BRANCH_DIRECT_CALL: 0
BRANCH_INDIRECT_CALL: 0
BRANCH_RETURN: 0

LLC TOTAL        ACCESS:      14069 HIT:       6911 MISS:       7158
LLC LOAD         ACCESS:        200 HIT:         20 MISS:        180
LLC RFO          ACCESS:       6981 HIT:          3 MISS:       6978
LLC PREFETCH     ACCESS:          0 HIT:          0 MISS:          0
LLC WRITE        ACCESS:       6886 HIT:       6886 MISS:          0
LLC TRANSLATION  ACCESS:          2 HIT:          2 MISS:          0
LLC PREFETCH REQUESTED:          0 ISSUED:          0 USEFUL:          0 USELESS:          0
LLC AVERAGE MISS LATENCY: 415.8 cycles
cpu0_DTLB TOTAL        ACCESS:    1350984 HIT:    1349850 MISS:       1134
cpu0_DTLB LOAD         ACCESS:    1350984 HIT:    1349850 MISS:       1134
cpu0_DTLB RFO          ACCESS:          0 HIT:          0 MISS:          0
cpu0_DTLB PREFETCH     ACCESS:          0 HIT:          0 MISS:          0
cpu0_DTLB WRITE        ACCESS:          0 HIT:          0 MISS:          0
cpu0_DTLB TRANSLATION  ACCESS:          0 HIT:          0 MISS:          0
cpu0_DTLB PREFETCH REQUESTED:          0 ISSUED:          0 USEFUL:          0 USELESS:          0
cpu0_DTLB AVERAGE MISS LATENCY: 15.23 cycles
cpu0_ITLB TOTAL        ACCESS:         77 HIT:         77 MISS:          0
cpu0_ITLB LOAD         ACCESS:         77 HIT:         77 MISS:          0
cpu0_ITLB RFO          ACCESS:          0 HIT:          0 MISS:          0
cpu0_ITLB PREFETCH     ACCESS:          0 HIT:          0 MISS:          0
cpu0_ITLB WRITE        ACCESS:          0 HIT:          0 MISS:          0
cpu0_ITLB TRANSLATION  ACCESS:          0 HIT:          0 MISS:          0
cpu0_ITLB PREFETCH REQUESTED:          0 ISSUED:          0 USEFUL:          0 USELESS:          0
cpu0_ITLB AVERAGE MISS LATENCY: -nan cycles
cpu0_L1D TOTAL        ACCESS:    1662915 HIT:    1575072 MISS:      87843
cpu0_L1D LOAD         ACCESS:     895057 HIT:     893723 MISS:       1334
cpu0_L1D RFO          ACCESS:          0 HIT:          0 MISS:          0
cpu0_L1D PREFETCH     ACCESS:          0 HIT:          0 MISS:          0
cpu0_L1D WRITE        ACCESS:     767745 HIT:     681239 MISS:      86506
cpu0_L1D TRANSLATION  ACCESS:        113 HIT:        110 MISS:          3
cpu0_L1D PREFETCH REQUESTED:          0 ISSUED:          0 USEFUL:          0 USELESS:          0
cpu0_L1D AVERAGE MISS LATENCY: 33.68 cycles
cpu0_L1I TOTAL        ACCESS:         84 HIT:         74 MISS:         10
cpu0_L1I LOAD         ACCESS:         84 HIT:         74 MISS:         10
cpu0_L1I RFO          ACCESS:          0 HIT:          0 MISS:          0
cpu0_L1I PREFETCH     ACCESS:          0 HIT:          0 MISS:          0
cpu0_L1I WRITE        ACCESS:          0 HIT:          0 MISS:          0
cpu0_L1I TRANSLATION  ACCESS:          0 HIT:          0 MISS:          0
cpu0_L1I PREFETCH REQUESTED:          0 ISSUED:          0 USEFUL:          0 USELESS:          0
cpu0_L1I AVERAGE MISS LATENCY: 161 cycles
cpu0_L2C TOTAL        ACCESS:      14735 HIT:       7551 MISS:       7184
cpu0_L2C LOAD         ACCESS:        471 HIT:        271 MISS:        200
cpu0_L2C RFO          ACCESS:       7079 HIT:         98 MISS:       6981
cpu0_L2C PREFETCH     ACCESS:          0 HIT:          0 MISS:          0
cpu0_L2C WRITE        ACCESS:       7182 HIT:       7181 MISS:          1
cpu0_L2C TRANSLATION  ACCESS:          3 HIT:          1 MISS:          2
cpu0_L2C PREFETCH REQUESTED:          0 ISSUED:          0 USEFUL:          0 USELESS:          0
cpu0_L2C AVERAGE MISS LATENCY: 435.3 cycles
cpu0_STLB TOTAL        ACCESS:        118 HIT:          5 MISS:        113
cpu0_STLB LOAD         ACCESS:        118 HIT:          5 MISS:        113
cpu0_STLB RFO          ACCESS:          0 HIT:          0 MISS:          0
cpu0_STLB PREFETCH     ACCESS:          0 HIT:          0 MISS:          0
cpu0_STLB WRITE        ACCESS:          0 HIT:          0 MISS:          0
cpu0_STLB TRANSLATION  ACCESS:          0 HIT:          0 MISS:          0
cpu0_STLB PREFETCH REQUESTED:          0 ISSUED:          0 USEFUL:          0 USELESS:          0
cpu0_STLB AVERAGE MISS LATENCY: 207.8 cycles

DRAM Statistics

Channel 0 RQ ROW_BUFFER_HIT:       6993
  ROW_BUFFER_MISS:        151
 AVG DBUS CONGESTED CYCLE: 3.99
WQ ROW_BUFFER_HIT: Channel 0 
  ROW_BUFFER_MISS:          0
  FULL:          0
