WARNING: physical memory size is smaller than virtual memory size.

*** ChampSim Multicore Out-of-Order Simulator ***
Warmup Instructions: 5000000
Simulation Instructions: 5000000
Number of CPUs: 1
Page size: 4096

Off-chip DRAM Size: 4 GiB Channels: 1 Width: 64-bit Data Race: 800 MT/s
Warmup finished CPU 0 instructions: 5000002 cycles: 1268380 cumulative IPC: 3.942 (Simulation time: 00 hr 00 min 12 sec)
Warmup complete CPU 0 instructions: 5000002 cycles: 1268380 cumulative IPC: 3.942 (Simulation time: 00 hr 00 min 12 sec)
Heartbeat CPU 0 instructions: 10000000 cycles: 3770516 heartbeat IPC: 2.652 cumulative IPC: 1.998 (Simulation time: 00 hr 00 min 31 sec)
Simulation finished CPU 0 instructions: 5000002 cycles: 2502138 cumulative IPC: 1.998 (Simulation time: 00 hr 00 min 31 sec)
Simulation complete CPU 0 instructions: 5000002 cycles: 2502138 cumulative IPC: 1.998 (Simulation time: 00 hr 00 min 31 sec)

ChampSim completed all CPUs

=== Simulation ===
CPU 0 runs /scratch/cluster/hill/traces/spec2006/zeusmp_600B.trace.xz
Region of Interest Statistics

CPU 0 cumulative IPC: 1.998 instructions: 5000002 cycles: 2502138
CPU 0 Branch Prediction Accuracy: 90.23% MPKI: 3.697 Average ROB Occupancy at Mispredict: 145.3
Branch type MPKI
BRANCH_DIRECT_JUMP: 0
BRANCH_INDIRECT: 0
BRANCH_CONDITIONAL: 3.7
BRANCH_DIRECT_CALL: 0
BRANCH_INDIRECT_CALL: 0
BRANCH_RETURN: 0

LLC TOTAL        ACCESS:      20910 HIT:       5202 MISS:      15708
LLC LOAD         ACCESS:      14914 HIT:       2189 MISS:      12725
LLC RFO          ACCESS:       2982 HIT:          0 MISS:       2982
LLC PREFETCH     ACCESS:          0 HIT:          0 MISS:          0
LLC WRITE        ACCESS:       2991 HIT:       2990 MISS:          1
LLC TRANSLATION  ACCESS:         23 HIT:         23 MISS:          0
LLC PREFETCH REQUESTED:          0 ISSUED:          0 USEFUL:          0 USELESS:          0
LLC AVERAGE MISS LATENCY: 417.6 cycles
cpu0_DTLB TOTAL        ACCESS:     960182 HIT:     816184 MISS:     143998
cpu0_DTLB LOAD         ACCESS:     960182 HIT:     816184 MISS:     143998
cpu0_DTLB RFO          ACCESS:          0 HIT:          0 MISS:          0
cpu0_DTLB PREFETCH     ACCESS:          0 HIT:          0 MISS:          0
cpu0_DTLB WRITE        ACCESS:          0 HIT:          0 MISS:          0
cpu0_DTLB TRANSLATION  ACCESS:          0 HIT:          0 MISS:          0
cpu0_DTLB PREFETCH REQUESTED:          0 ISSUED:          0 USEFUL:          0 USELESS:          0
cpu0_DTLB AVERAGE MISS LATENCY: 7.667 cycles
cpu0_ITLB TOTAL        ACCESS:      44099 HIT:      44099 MISS:          0
cpu0_ITLB LOAD         ACCESS:      44099 HIT:      44099 MISS:          0
cpu0_ITLB RFO          ACCESS:          0 HIT:          0 MISS:          0
cpu0_ITLB PREFETCH     ACCESS:          0 HIT:          0 MISS:          0
cpu0_ITLB WRITE        ACCESS:          0 HIT:          0 MISS:          0
cpu0_ITLB TRANSLATION  ACCESS:          0 HIT:          0 MISS:          0
cpu0_ITLB PREFETCH REQUESTED:          0 ISSUED:          0 USEFUL:          0 USELESS:          0
cpu0_ITLB AVERAGE MISS LATENCY: -nan cycles
cpu0_L1D TOTAL        ACCESS:    1175022 HIT:    1143972 MISS:      31050
cpu0_L1D LOAD         ACCESS:     801848 HIT:     777754 MISS:      24094
cpu0_L1D RFO          ACCESS:          0 HIT:          0 MISS:          0
cpu0_L1D PREFETCH     ACCESS:          0 HIT:          0 MISS:          0
cpu0_L1D WRITE        ACCESS:     372926 HIT:     366218 MISS:       6708
cpu0_L1D TRANSLATION  ACCESS:        248 HIT:          0 MISS:        248
cpu0_L1D PREFETCH REQUESTED:          0 ISSUED:          0 USEFUL:          0 USELESS:          0
cpu0_L1D AVERAGE MISS LATENCY: 233.1 cycles
cpu0_L1I TOTAL        ACCESS:      57701 HIT:      57701 MISS:          0
cpu0_L1I LOAD         ACCESS:      57701 HIT:      57701 MISS:          0
cpu0_L1I RFO          ACCESS:          0 HIT:          0 MISS:          0
cpu0_L1I PREFETCH     ACCESS:          0 HIT:          0 MISS:          0
cpu0_L1I WRITE        ACCESS:          0 HIT:          0 MISS:          0
cpu0_L1I TRANSLATION  ACCESS:          0 HIT:          0 MISS:          0
cpu0_L1I PREFETCH REQUESTED:          0 ISSUED:          0 USEFUL:          0 USELESS:          0
cpu0_L1I AVERAGE MISS LATENCY: -nan cycles
cpu0_L2C TOTAL        ACCESS:      37318 HIT:      19389 MISS:      17929
cpu0_L2C LOAD         ACCESS:      22463 HIT:       7549 MISS:      14914
cpu0_L2C RFO          ACCESS:       6708 HIT:       3726 MISS:       2982
cpu0_L2C PREFETCH     ACCESS:          0 HIT:          0 MISS:          0
cpu0_L2C WRITE        ACCESS:       7899 HIT:       7889 MISS:         10
cpu0_L2C TRANSLATION  ACCESS:        248 HIT:        225 MISS:         23
cpu0_L2C PREFETCH REQUESTED:          0 ISSUED:          0 USEFUL:          0 USELESS:          0
cpu0_L2C AVERAGE MISS LATENCY: 386.8 cycles
cpu0_STLB TOTAL        ACCESS:     132919 HIT:     132671 MISS:        248
cpu0_STLB LOAD         ACCESS:     132919 HIT:     132671 MISS:        248
cpu0_STLB RFO          ACCESS:          0 HIT:          0 MISS:          0
cpu0_STLB PREFETCH     ACCESS:          0 HIT:          0 MISS:          0
cpu0_STLB WRITE        ACCESS:          0 HIT:          0 MISS:          0
cpu0_STLB TRANSLATION  ACCESS:          0 HIT:          0 MISS:          0
cpu0_STLB PREFETCH REQUESTED:          0 ISSUED:          0 USEFUL:          0 USELESS:          0
cpu0_STLB AVERAGE MISS LATENCY: 242.8 cycles

DRAM Statistics

Channel 0 RQ ROW_BUFFER_HIT:         21
  ROW_BUFFER_MISS:      15686
 AVG DBUS CONGESTED CYCLE: 3.913
WQ ROW_BUFFER_HIT: Channel 0 
  ROW_BUFFER_MISS:          0
  FULL:        181
