WARNING: physical memory size is smaller than virtual memory size.

*** ChampSim Multicore Out-of-Order Simulator ***
Warmup Instructions: 5000000
Simulation Instructions: 5000000
Number of CPUs: 1
Page size: 4096

Off-chip DRAM Size: 4 GiB Channels: 1 Width: 64-bit Data Race: 800 MT/s
Warmup finished CPU 0 instructions: 5000000 cycles: 2431302 cumulative IPC: 2.057 (Simulation time: 00 hr 00 min 16 sec)
Warmup complete CPU 0 instructions: 5000000 cycles: 2431302 cumulative IPC: 2.057 (Simulation time: 00 hr 00 min 16 sec)
Heartbeat CPU 0 instructions: 10000000 cycles: 5882118 heartbeat IPC: 1.7 cumulative IPC: 1.449 (Simulation time: 00 hr 00 min 36 sec)
Simulation finished CPU 0 instructions: 5000000 cycles: 3450817 cumulative IPC: 1.449 (Simulation time: 00 hr 00 min 36 sec)
Simulation complete CPU 0 instructions: 5000000 cycles: 3450817 cumulative IPC: 1.449 (Simulation time: 00 hr 00 min 36 sec)

ChampSim completed all CPUs

=== Simulation ===
CPU 0 runs /scratch/cluster/hill/traces/spec2006/gcc_56B.trace.xz
Region of Interest Statistics

CPU 0 cumulative IPC: 1.449 instructions: 5000000 cycles: 3450817
CPU 0 Branch Prediction Accuracy: 95.52% MPKI: 7.495 Average ROB Occupancy at Mispredict: 19.5
Branch type MPKI
BRANCH_DIRECT_JUMP: 0.032
BRANCH_INDIRECT: 0.0626
BRANCH_CONDITIONAL: 7.4
BRANCH_DIRECT_CALL: 0
BRANCH_INDIRECT_CALL: 0
BRANCH_RETURN: 0

LLC TOTAL        ACCESS:    1104134 HIT:    1101633 MISS:       2501
LLC LOAD         ACCESS:       9722 HIT:       7729 MISS:       1993
LLC RFO          ACCESS:     545630 HIT:     545154 MISS:        476
LLC PREFETCH     ACCESS:          0 HIT:          0 MISS:          0
LLC WRITE        ACCESS:     548704 HIT:     548704 MISS:          0
LLC TRANSLATION  ACCESS:         78 HIT:         46 MISS:         32
LLC PREFETCH REQUESTED:          0 ISSUED:          0 USEFUL:          0 USELESS:          0
LLC AVERAGE MISS LATENCY: 172.4 cycles
cpu0_DTLB TOTAL        ACCESS:    1271493 HIT:    1220666 MISS:      50827
cpu0_DTLB LOAD         ACCESS:    1271493 HIT:    1220666 MISS:      50827
cpu0_DTLB RFO          ACCESS:          0 HIT:          0 MISS:          0
cpu0_DTLB PREFETCH     ACCESS:          0 HIT:          0 MISS:          0
cpu0_DTLB WRITE        ACCESS:          0 HIT:          0 MISS:          0
cpu0_DTLB TRANSLATION  ACCESS:          0 HIT:          0 MISS:          0
cpu0_DTLB PREFETCH REQUESTED:          0 ISSUED:          0 USEFUL:          0 USELESS:          0
cpu0_DTLB AVERAGE MISS LATENCY: 1.564 cycles
cpu0_ITLB TOTAL        ACCESS:      29410 HIT:      29410 MISS:          0
cpu0_ITLB LOAD         ACCESS:      29410 HIT:      29410 MISS:          0
cpu0_ITLB RFO          ACCESS:          0 HIT:          0 MISS:          0
cpu0_ITLB PREFETCH     ACCESS:          0 HIT:          0 MISS:          0
cpu0_ITLB WRITE        ACCESS:          0 HIT:          0 MISS:          0
cpu0_ITLB TRANSLATION  ACCESS:          0 HIT:          0 MISS:          0
cpu0_ITLB PREFETCH REQUESTED:          0 ISSUED:          0 USEFUL:          0 USELESS:          0
cpu0_ITLB AVERAGE MISS LATENCY: -nan cycles
cpu0_L1D TOTAL        ACCESS:    2394032 HIT:     202048 MISS:    2191984
cpu0_L1D LOAD         ACCESS:     126904 HIT:     113440 MISS:      13464
cpu0_L1D RFO          ACCESS:          0 HIT:          0 MISS:          0
cpu0_L1D PREFETCH     ACCESS:          0 HIT:          0 MISS:          0
cpu0_L1D WRITE        ACCESS:    2267049 HIT:      88607 MISS:    2178442
cpu0_L1D TRANSLATION  ACCESS:         79 HIT:          1 MISS:         78
cpu0_L1D PREFETCH REQUESTED:          0 ISSUED:          0 USEFUL:          0 USELESS:          0
cpu0_L1D AVERAGE MISS LATENCY: 7.697 cycles
cpu0_L1I TOTAL        ACCESS:      33115 HIT:      33115 MISS:          0
cpu0_L1I LOAD         ACCESS:      33115 HIT:      33115 MISS:          0
cpu0_L1I RFO          ACCESS:          0 HIT:          0 MISS:          0
cpu0_L1I PREFETCH     ACCESS:          0 HIT:          0 MISS:          0
cpu0_L1I WRITE        ACCESS:          0 HIT:          0 MISS:          0
cpu0_L1I TRANSLATION  ACCESS:          0 HIT:          0 MISS:          0
cpu0_L1I PREFETCH REQUESTED:          0 ISSUED:          0 USEFUL:          0 USELESS:          0
cpu0_L1I AVERAGE MISS LATENCY: -nan cycles
cpu0_L2C TOTAL        ACCESS:    1104257 HIT:     548823 MISS:     555434
cpu0_L2C LOAD         ACCESS:       9735 HIT:         13 MISS:       9722
cpu0_L2C RFO          ACCESS:     545733 HIT:         99 MISS:     545634
cpu0_L2C PREFETCH     ACCESS:          0 HIT:          0 MISS:          0
cpu0_L2C WRITE        ACCESS:     548711 HIT:     548711 MISS:          0
cpu0_L2C TRANSLATION  ACCESS:         78 HIT:          0 MISS:         78
cpu0_L2C PREFETCH REQUESTED:          0 ISSUED:          0 USEFUL:          0 USELESS:          0
cpu0_L2C AVERAGE MISS LATENCY: 20.99 cycles
cpu0_STLB TOTAL        ACCESS:      15729 HIT:      15651 MISS:         78
cpu0_STLB LOAD         ACCESS:      15729 HIT:      15651 MISS:         78
cpu0_STLB RFO          ACCESS:          0 HIT:          0 MISS:          0
cpu0_STLB PREFETCH     ACCESS:          0 HIT:          0 MISS:          0
cpu0_STLB WRITE        ACCESS:          0 HIT:          0 MISS:          0
cpu0_STLB TRANSLATION  ACCESS:          0 HIT:          0 MISS:          0
cpu0_STLB PREFETCH REQUESTED:          0 ISSUED:          0 USEFUL:          0 USELESS:          0
cpu0_STLB AVERAGE MISS LATENCY: 327.1 cycles

DRAM Statistics

Channel 0 RQ ROW_BUFFER_HIT:        948
  ROW_BUFFER_MISS:       1553
 AVG DBUS CONGESTED CYCLE: 3.644
WQ ROW_BUFFER_HIT: Channel 0 
  ROW_BUFFER_MISS:          0
  FULL:          0
