WARNING: physical memory size is smaller than virtual memory size.

*** ChampSim Multicore Out-of-Order Simulator ***
Warmup Instructions: 1000000
Simulation Instructions: 1000000
Number of CPUs: 1
Page size: 4096

Off-chip DRAM Size: 4 GiB Channels: 1 Width: 64-bit Data Race: 800 MT/s
Warmup finished CPU 0 instructions: 1000003 cycles: 250076 cumulative IPC: 3.999 (Simulation time: 00 hr 00 min 20 sec)
Warmup complete CPU 0 instructions: 1000003 cycles: 250076 cumulative IPC: 3.999 (Simulation time: 00 hr 00 min 20 sec)
Simulation finished CPU 0 instructions: 1000002 cycles: 1866485 cumulative IPC: 0.5358 (Simulation time: 00 hr 00 min 54 sec)
Simulation complete CPU 0 instructions: 1000002 cycles: 1866485 cumulative IPC: 0.5358 (Simulation time: 00 hr 00 min 54 sec)

ChampSim completed all CPUs

=== Simulation ===
CPU 0 runs /scratch/cluster/hill/traces/spec2006/omnetpp_17B.trace.xz
Region of Interest Statistics

CPU 0 cumulative IPC: 0.5358 instructions: 1000002 cycles: 1866485
CPU 0 Branch Prediction Accuracy: 98.06% MPKI: 6.603 Average ROB Occupancy at Mispredict: 46.76
Branch type MPKI
BRANCH_DIRECT_JUMP: 0
BRANCH_INDIRECT: 0.036
BRANCH_CONDITIONAL: 6.53
BRANCH_DIRECT_CALL: 0.005
BRANCH_INDIRECT_CALL: 0.003
BRANCH_RETURN: 0.025

LLC TOTAL        ACCESS:      34137 HIT:       8414 MISS:      25723
LLC LOAD         ACCESS:      30592 HIT:       8090 MISS:      22502
LLC RFO          ACCESS:         26 HIT:          1 MISS:         25
LLC PREFETCH     ACCESS:          0 HIT:          0 MISS:          0
LLC WRITE        ACCESS:        233 HIT:        233 MISS:          0
LLC TRANSLATION  ACCESS:       3286 HIT:         90 MISS:       3196
LLC PREFETCH REQUESTED:          0 ISSUED:          0 USEFUL:          0 USELESS:          0
LLC AVERAGE MISS LATENCY: 880.1 cycles
cpu0_DTLB TOTAL        ACCESS:     110636 HIT:      85229 MISS:      25407
cpu0_DTLB LOAD         ACCESS:     110636 HIT:      85229 MISS:      25407
cpu0_DTLB RFO          ACCESS:          0 HIT:          0 MISS:          0
cpu0_DTLB PREFETCH     ACCESS:          0 HIT:          0 MISS:          0
cpu0_DTLB WRITE        ACCESS:          0 HIT:          0 MISS:          0
cpu0_DTLB TRANSLATION  ACCESS:          0 HIT:          0 MISS:          0
cpu0_DTLB PREFETCH REQUESTED:          0 ISSUED:          0 USEFUL:          0 USELESS:          0
cpu0_DTLB AVERAGE MISS LATENCY: 244 cycles
cpu0_ITLB TOTAL        ACCESS:       4769 HIT:       4759 MISS:         10
cpu0_ITLB LOAD         ACCESS:       4769 HIT:       4759 MISS:         10
cpu0_ITLB RFO          ACCESS:          0 HIT:          0 MISS:          0
cpu0_ITLB PREFETCH     ACCESS:          0 HIT:          0 MISS:          0
cpu0_ITLB WRITE        ACCESS:          0 HIT:          0 MISS:          0
cpu0_ITLB TRANSLATION  ACCESS:          0 HIT:          0 MISS:          0
cpu0_ITLB PREFETCH REQUESTED:          0 ISSUED:          0 USEFUL:          0 USELESS:          0
cpu0_ITLB AVERAGE MISS LATENCY: 28.7 cycles
cpu0_L1D TOTAL        ACCESS:     138332 HIT:      94724 MISS:      43608
cpu0_L1D LOAD         ACCESS:      94600 HIT:      54813 MISS:      39787
cpu0_L1D RFO          ACCESS:          0 HIT:          0 MISS:          0
cpu0_L1D PREFETCH     ACCESS:          0 HIT:          0 MISS:          0
cpu0_L1D WRITE        ACCESS:      24809 HIT:      24706 MISS:        103
cpu0_L1D TRANSLATION  ACCESS:      18923 HIT:      15205 MISS:       3718
cpu0_L1D PREFETCH REQUESTED:          0 ISSUED:          0 USEFUL:          0 USELESS:          0
cpu0_L1D AVERAGE MISS LATENCY: 524.3 cycles
cpu0_L1I TOTAL        ACCESS:       5267 HIT:       5264 MISS:          3
cpu0_L1I LOAD         ACCESS:       5267 HIT:       5264 MISS:          3
cpu0_L1I RFO          ACCESS:          0 HIT:          0 MISS:          0
cpu0_L1I PREFETCH     ACCESS:          0 HIT:          0 MISS:          0
cpu0_L1I WRITE        ACCESS:          0 HIT:          0 MISS:          0
cpu0_L1I TRANSLATION  ACCESS:          0 HIT:          0 MISS:          0
cpu0_L1I PREFETCH REQUESTED:          0 ISSUED:          0 USEFUL:          0 USELESS:          0
cpu0_L1I AVERAGE MISS LATENCY: 127.3 cycles
cpu0_L2C TOTAL        ACCESS:      34320 HIT:        416 MISS:      33904
cpu0_L2C LOAD         ACCESS:      30602 HIT:         10 MISS:      30592
cpu0_L2C RFO          ACCESS:         32 HIT:          6 MISS:         26
cpu0_L2C PREFETCH     ACCESS:          0 HIT:          0 MISS:          0
cpu0_L2C WRITE        ACCESS:        225 HIT:        225 MISS:          0
cpu0_L2C TRANSLATION  ACCESS:       3461 HIT:        175 MISS:       3286
cpu0_L2C PREFETCH REQUESTED:          0 ISSUED:          0 USEFUL:          0 USELESS:          0
cpu0_L2C AVERAGE MISS LATENCY: 688.5 cycles
cpu0_STLB TOTAL        ACCESS:      18823 HIT:         72 MISS:      18751
cpu0_STLB LOAD         ACCESS:      18823 HIT:         72 MISS:      18751
cpu0_STLB RFO          ACCESS:          0 HIT:          0 MISS:          0
cpu0_STLB PREFETCH     ACCESS:          0 HIT:          0 MISS:          0
cpu0_STLB WRITE        ACCESS:          0 HIT:          0 MISS:          0
cpu0_STLB TRANSLATION  ACCESS:          0 HIT:          0 MISS:          0
cpu0_STLB PREFETCH REQUESTED:          0 ISSUED:          0 USEFUL:          0 USELESS:          0
cpu0_STLB AVERAGE MISS LATENCY: 336.3 cycles

DRAM Statistics

Channel 0 RQ ROW_BUFFER_HIT:      10301
  ROW_BUFFER_MISS:      15408
 AVG DBUS CONGESTED CYCLE: 3.846
WQ ROW_BUFFER_HIT: Channel 0 
  ROW_BUFFER_MISS:          8
  FULL:         86
