WARNING: physical memory size is smaller than virtual memory size.

*** ChampSim Multicore Out-of-Order Simulator ***
Warmup Instructions: 1000000
Simulation Instructions: 1000000
Number of CPUs: 1
Page size: 4096

Off-chip DRAM Size: 4 GiB Channels: 1 Width: 64-bit Data Race: 800 MT/s
Warmup finished CPU 0 instructions: 1000003 cycles: 250410 cumulative IPC: 3.993 (Simulation time: 00 hr 00 min 14 sec)
Warmup complete CPU 0 instructions: 1000003 cycles: 250410 cumulative IPC: 3.993 (Simulation time: 00 hr 00 min 14 sec)
Simulation finished CPU 0 instructions: 1000003 cycles: 745754 cumulative IPC: 1.341 (Simulation time: 00 hr 00 min 32 sec)
Simulation complete CPU 0 instructions: 1000003 cycles: 745754 cumulative IPC: 1.341 (Simulation time: 00 hr 00 min 32 sec)

ChampSim completed all CPUs

=== Simulation ===
CPU 0 runs /scratch/cluster/hill/traces/spec2006/cactusADM_1495B.trace.xz
Region of Interest Statistics

CPU 0 cumulative IPC: 1.341 instructions: 1000003 cycles: 745754
CPU 0 Branch Prediction Accuracy: 98.28% MPKI: 0.02 Average ROB Occupancy at Mispredict: 264.1
Branch type MPKI
BRANCH_DIRECT_JUMP: 0
BRANCH_INDIRECT: 0
BRANCH_CONDITIONAL: 0.02
BRANCH_DIRECT_CALL: 0
BRANCH_INDIRECT_CALL: 0
BRANCH_RETURN: 0

LLC TOTAL        ACCESS:       6570 HIT:        816 MISS:       5754
LLC LOAD         ACCESS:       4684 HIT:          0 MISS:       4684
LLC RFO          ACCESS:        851 HIT:          0 MISS:        851
LLC PREFETCH     ACCESS:          0 HIT:          0 MISS:          0
LLC WRITE        ACCESS:        816 HIT:        816 MISS:          0
LLC TRANSLATION  ACCESS:        219 HIT:          0 MISS:        219
LLC PREFETCH REQUESTED:          0 ISSUED:          0 USEFUL:          0 USELESS:          0
LLC AVERAGE MISS LATENCY: 434.6 cycles
cpu0_DTLB TOTAL        ACCESS:     231814 HIT:     215444 MISS:      16370
cpu0_DTLB LOAD         ACCESS:     231814 HIT:     215444 MISS:      16370
cpu0_DTLB RFO          ACCESS:          0 HIT:          0 MISS:          0
cpu0_DTLB PREFETCH     ACCESS:          0 HIT:          0 MISS:          0
cpu0_DTLB WRITE        ACCESS:          0 HIT:          0 MISS:          0
cpu0_DTLB TRANSLATION  ACCESS:          0 HIT:          0 MISS:          0
cpu0_DTLB PREFETCH REQUESTED:          0 ISSUED:          0 USEFUL:          0 USELESS:          0
cpu0_DTLB AVERAGE MISS LATENCY: 17.97 cycles
cpu0_ITLB TOTAL        ACCESS:     151387 HIT:     151387 MISS:          0
cpu0_ITLB LOAD         ACCESS:     151387 HIT:     151387 MISS:          0
cpu0_ITLB RFO          ACCESS:          0 HIT:          0 MISS:          0
cpu0_ITLB PREFETCH     ACCESS:          0 HIT:          0 MISS:          0
cpu0_ITLB WRITE        ACCESS:          0 HIT:          0 MISS:          0
cpu0_ITLB TRANSLATION  ACCESS:          0 HIT:          0 MISS:          0
cpu0_ITLB PREFETCH REQUESTED:          0 ISSUED:          0 USEFUL:          0 USELESS:          0
cpu0_ITLB AVERAGE MISS LATENCY: -nan cycles
cpu0_L1D TOTAL        ACCESS:     361596 HIT:     345045 MISS:      16551
cpu0_L1D LOAD         ACCESS:     248007 HIT:     236832 MISS:      11175
cpu0_L1D RFO          ACCESS:          0 HIT:          0 MISS:          0
cpu0_L1D PREFETCH     ACCESS:          0 HIT:          0 MISS:          0
cpu0_L1D WRITE        ACCESS:     106087 HIT:     104578 MISS:       1509
cpu0_L1D TRANSLATION  ACCESS:       7502 HIT:       3635 MISS:       3867
cpu0_L1D PREFETCH REQUESTED:          0 ISSUED:          0 USEFUL:          0 USELESS:          0
cpu0_L1D AVERAGE MISS LATENCY: 164.4 cycles
cpu0_L1I TOTAL        ACCESS:     197658 HIT:     197658 MISS:          0
cpu0_L1I LOAD         ACCESS:     197658 HIT:     197658 MISS:          0
cpu0_L1I RFO          ACCESS:          0 HIT:          0 MISS:          0
cpu0_L1I PREFETCH     ACCESS:          0 HIT:          0 MISS:          0
cpu0_L1I WRITE        ACCESS:          0 HIT:          0 MISS:          0
cpu0_L1I TRANSLATION  ACCESS:          0 HIT:          0 MISS:          0
cpu0_L1I PREFETCH REQUESTED:          0 ISSUED:          0 USEFUL:          0 USELESS:          0
cpu0_L1I AVERAGE MISS LATENCY: -nan cycles
cpu0_L2C TOTAL        ACCESS:      16217 HIT:      10461 MISS:       5756
cpu0_L2C LOAD         ACCESS:       9919 HIT:       5234 MISS:       4685
cpu0_L2C RFO          ACCESS:       1196 HIT:        345 MISS:        851
cpu0_L2C PREFETCH     ACCESS:          0 HIT:          0 MISS:          0
cpu0_L2C WRITE        ACCESS:       1235 HIT:       1234 MISS:          1
cpu0_L2C TRANSLATION  ACCESS:       3867 HIT:       3648 MISS:        219
cpu0_L2C PREFETCH REQUESTED:          0 ISSUED:          0 USEFUL:          0 USELESS:          0
cpu0_L2C AVERAGE MISS LATENCY: 455.5 cycles
cpu0_STLB TOTAL        ACCESS:      11746 HIT:       7745 MISS:       4001
cpu0_STLB LOAD         ACCESS:      11746 HIT:       7745 MISS:       4001
cpu0_STLB RFO          ACCESS:          0 HIT:          0 MISS:          0
cpu0_STLB PREFETCH     ACCESS:          0 HIT:          0 MISS:          0
cpu0_STLB WRITE        ACCESS:          0 HIT:          0 MISS:          0
cpu0_STLB TRANSLATION  ACCESS:          0 HIT:          0 MISS:          0
cpu0_STLB PREFETCH REQUESTED:          0 ISSUED:          0 USEFUL:          0 USELESS:          0
cpu0_STLB AVERAGE MISS LATENCY: 53.28 cycles

DRAM Statistics

Channel 0 RQ ROW_BUFFER_HIT:       1673
  ROW_BUFFER_MISS:       4077
 AVG DBUS CONGESTED CYCLE: 3.764
WQ ROW_BUFFER_HIT: Channel 0 
  ROW_BUFFER_MISS:          0
  FULL:          0
