WARNING: physical memory size is smaller than virtual memory size.

*** ChampSim Multicore Out-of-Order Simulator ***
Warmup Instructions: 1000000
Simulation Instructions: 1000000
Number of CPUs: 1
Page size: 4096

Off-chip DRAM Size: 4 GiB Channels: 1 Width: 64-bit Data Race: 800 MT/s
Warmup finished CPU 0 instructions: 1000003 cycles: 489462 cumulative IPC: 2.043 (Simulation time: 00 hr 00 min 19 sec)
Warmup complete CPU 0 instructions: 1000003 cycles: 489462 cumulative IPC: 2.043 (Simulation time: 00 hr 00 min 19 sec)
Simulation finished CPU 0 instructions: 1000001 cycles: 636655 cumulative IPC: 1.571 (Simulation time: 00 hr 00 min 39 sec)
Simulation complete CPU 0 instructions: 1000001 cycles: 636655 cumulative IPC: 1.571 (Simulation time: 00 hr 00 min 39 sec)

ChampSim completed all CPUs

=== Simulation ===
CPU 0 runs /scratch/cluster/hill/traces/spec2006/gcc_56B.trace.xz
Region of Interest Statistics

CPU 0 cumulative IPC: 1.571 instructions: 1000001 cycles: 636655
CPU 0 Branch Prediction Accuracy: 97.1% MPKI: 4.97 Average ROB Occupancy at Mispredict: 32.01
Branch type MPKI
BRANCH_DIRECT_JUMP: 0.035
BRANCH_INDIRECT: 0.062
BRANCH_CONDITIONAL: 4.87
BRANCH_DIRECT_CALL: 0
BRANCH_INDIRECT_CALL: 0
BRANCH_RETURN: 0

LLC TOTAL        ACCESS:     211141 HIT:     210574 MISS:        567
LLC LOAD         ACCESS:       1907 HIT:       1497 MISS:        410
LLC RFO          ACCESS:     104281 HIT:     104151 MISS:        130
LLC PREFETCH     ACCESS:          0 HIT:          0 MISS:          0
LLC WRITE        ACCESS:     104917 HIT:     104917 MISS:          0
LLC TRANSLATION  ACCESS:         36 HIT:          9 MISS:         27
LLC PREFETCH REQUESTED:          0 ISSUED:          0 USEFUL:          0 USELESS:          0
LLC AVERAGE MISS LATENCY: 184.8 cycles
cpu0_DTLB TOTAL        ACCESS:     256994 HIT:     246407 MISS:      10587
cpu0_DTLB LOAD         ACCESS:     256994 HIT:     246407 MISS:      10587
cpu0_DTLB RFO          ACCESS:          0 HIT:          0 MISS:          0
cpu0_DTLB PREFETCH     ACCESS:          0 HIT:          0 MISS:          0
cpu0_DTLB WRITE        ACCESS:          0 HIT:          0 MISS:          0
cpu0_DTLB TRANSLATION  ACCESS:          0 HIT:          0 MISS:          0
cpu0_DTLB PREFETCH REQUESTED:          0 ISSUED:          0 USEFUL:          0 USELESS:          0
cpu0_DTLB AVERAGE MISS LATENCY: 2.347 cycles
cpu0_ITLB TOTAL        ACCESS:       6058 HIT:       6058 MISS:          0
cpu0_ITLB LOAD         ACCESS:       6058 HIT:       6058 MISS:          0
cpu0_ITLB RFO          ACCESS:          0 HIT:          0 MISS:          0
cpu0_ITLB PREFETCH     ACCESS:          0 HIT:          0 MISS:          0
cpu0_ITLB WRITE        ACCESS:          0 HIT:          0 MISS:          0
cpu0_ITLB TRANSLATION  ACCESS:          0 HIT:          0 MISS:          0
cpu0_ITLB PREFETCH REQUESTED:          0 ISSUED:          0 USEFUL:          0 USELESS:          0
cpu0_ITLB AVERAGE MISS LATENCY: -nan cycles
cpu0_L1D TOTAL        ACCESS:     460936 HIT:      41096 MISS:     419840
cpu0_L1D LOAD         ACCESS:      24838 HIT:      21638 MISS:       3200
cpu0_L1D RFO          ACCESS:          0 HIT:          0 MISS:          0
cpu0_L1D PREFETCH     ACCESS:          0 HIT:          0 MISS:          0
cpu0_L1D WRITE        ACCESS:     436062 HIT:      19458 MISS:     416604
cpu0_L1D TRANSLATION  ACCESS:         36 HIT:          0 MISS:         36
cpu0_L1D PREFETCH REQUESTED:          0 ISSUED:          0 USEFUL:          0 USELESS:          0
cpu0_L1D AVERAGE MISS LATENCY: 7.714 cycles
cpu0_L1I TOTAL        ACCESS:       6708 HIT:       6708 MISS:          0
cpu0_L1I LOAD         ACCESS:       6708 HIT:       6708 MISS:          0
cpu0_L1I RFO          ACCESS:          0 HIT:          0 MISS:          0
cpu0_L1I PREFETCH     ACCESS:          0 HIT:          0 MISS:          0
cpu0_L1I WRITE        ACCESS:          0 HIT:          0 MISS:          0
cpu0_L1I TRANSLATION  ACCESS:          0 HIT:          0 MISS:          0
cpu0_L1I PREFETCH REQUESTED:          0 ISSUED:          0 USEFUL:          0 USELESS:          0
cpu0_L1I AVERAGE MISS LATENCY: -nan cycles
cpu0_L2C TOTAL        ACCESS:     211262 HIT:     105038 MISS:     106224
cpu0_L2C LOAD         ACCESS:       1909 HIT:          2 MISS:       1907
cpu0_L2C RFO          ACCESS:     104299 HIT:         18 MISS:     104281
cpu0_L2C PREFETCH     ACCESS:          0 HIT:          0 MISS:          0
cpu0_L2C WRITE        ACCESS:     105018 HIT:     105018 MISS:          0
cpu0_L2C TRANSLATION  ACCESS:         36 HIT:          0 MISS:         36
cpu0_L2C PREFETCH REQUESTED:          0 ISSUED:          0 USEFUL:          0 USELESS:          0
cpu0_L2C AVERAGE MISS LATENCY: 21.21 cycles
cpu0_STLB TOTAL        ACCESS:       3209 HIT:       3177 MISS:         32
cpu0_STLB LOAD         ACCESS:       3209 HIT:       3177 MISS:         32
cpu0_STLB RFO          ACCESS:          0 HIT:          0 MISS:          0
cpu0_STLB PREFETCH     ACCESS:          0 HIT:          0 MISS:          0
cpu0_STLB WRITE        ACCESS:          0 HIT:          0 MISS:          0
cpu0_STLB TRANSLATION  ACCESS:          0 HIT:          0 MISS:          0
cpu0_STLB PREFETCH REQUESTED:          0 ISSUED:          0 USEFUL:          0 USELESS:          0
cpu0_STLB AVERAGE MISS LATENCY: 453 cycles

DRAM Statistics

Channel 0 RQ ROW_BUFFER_HIT:        178
  ROW_BUFFER_MISS:        389
 AVG DBUS CONGESTED CYCLE: 3.632
WQ ROW_BUFFER_HIT: Channel 0 
  ROW_BUFFER_MISS:          0
  FULL:          0
