WARNING: physical memory size is smaller than virtual memory size.

*** ChampSim Multicore Out-of-Order Simulator ***
Warmup Instructions: 1000000
Simulation Instructions: 1000000
Number of CPUs: 1
Page size: 4096

Off-chip DRAM Size: 4 GiB Channels: 1 Width: 64-bit Data Race: 800 MT/s
Warmup finished CPU 0 instructions: 1000001 cycles: 251967 cumulative IPC: 3.969 (Simulation time: 00 hr 00 min 13 sec)
Warmup complete CPU 0 instructions: 1000001 cycles: 251967 cumulative IPC: 3.969 (Simulation time: 00 hr 00 min 13 sec)
Simulation finished CPU 0 instructions: 1000002 cycles: 479598 cumulative IPC: 2.085 (Simulation time: 00 hr 00 min 28 sec)
Simulation complete CPU 0 instructions: 1000002 cycles: 479598 cumulative IPC: 2.085 (Simulation time: 00 hr 00 min 28 sec)

ChampSim completed all CPUs

=== Simulation ===
CPU 0 runs /scratch/cluster/hill/traces/spec2006/zeusmp_100B.trace.xz
Region of Interest Statistics

CPU 0 cumulative IPC: 2.085 instructions: 1000002 cycles: 479598
CPU 0 Branch Prediction Accuracy: 99.39% MPKI: 0.198 Average ROB Occupancy at Mispredict: 328.3
Branch type MPKI
BRANCH_DIRECT_JUMP: 0
BRANCH_INDIRECT: 0
BRANCH_CONDITIONAL: 0.198
BRANCH_DIRECT_CALL: 0
BRANCH_INDIRECT_CALL: 0
BRANCH_RETURN: 0

LLC TOTAL        ACCESS:       4892 HIT:       1067 MISS:       3825
LLC LOAD         ACCESS:       2694 HIT:          0 MISS:       2694
LLC RFO          ACCESS:       1064 HIT:          0 MISS:       1064
LLC PREFETCH     ACCESS:          0 HIT:          0 MISS:          0
LLC WRITE        ACCESS:       1040 HIT:       1040 MISS:          0
LLC TRANSLATION  ACCESS:         94 HIT:         27 MISS:         67
LLC PREFETCH REQUESTED:          0 ISSUED:          0 USEFUL:          0 USELESS:          0
LLC AVERAGE MISS LATENCY: 327 cycles
cpu0_DTLB TOTAL        ACCESS:     173303 HIT:     140763 MISS:      32540
cpu0_DTLB LOAD         ACCESS:     173303 HIT:     140763 MISS:      32540
cpu0_DTLB RFO          ACCESS:          0 HIT:          0 MISS:          0
cpu0_DTLB PREFETCH     ACCESS:          0 HIT:          0 MISS:          0
cpu0_DTLB WRITE        ACCESS:          0 HIT:          0 MISS:          0
cpu0_DTLB TRANSLATION  ACCESS:          0 HIT:          0 MISS:          0
cpu0_DTLB PREFETCH REQUESTED:          0 ISSUED:          0 USEFUL:          0 USELESS:          0
cpu0_DTLB AVERAGE MISS LATENCY: 8.887 cycles
cpu0_ITLB TOTAL        ACCESS:       2881 HIT:       2881 MISS:          0
cpu0_ITLB LOAD         ACCESS:       2881 HIT:       2881 MISS:          0
cpu0_ITLB RFO          ACCESS:          0 HIT:          0 MISS:          0
cpu0_ITLB PREFETCH     ACCESS:          0 HIT:          0 MISS:          0
cpu0_ITLB WRITE        ACCESS:          0 HIT:          0 MISS:          0
cpu0_ITLB TRANSLATION  ACCESS:          0 HIT:          0 MISS:          0
cpu0_ITLB PREFETCH REQUESTED:          0 ISSUED:          0 USEFUL:          0 USELESS:          0
cpu0_ITLB AVERAGE MISS LATENCY: -nan cycles
cpu0_L1D TOTAL        ACCESS:     210318 HIT:     156841 MISS:      53477
cpu0_L1D LOAD         ACCESS:     122336 HIT:      92621 MISS:      29715
cpu0_L1D RFO          ACCESS:          0 HIT:          0 MISS:          0
cpu0_L1D PREFETCH     ACCESS:          0 HIT:          0 MISS:          0
cpu0_L1D WRITE        ACCESS:      87876 HIT:      64220 MISS:      23656
cpu0_L1D TRANSLATION  ACCESS:        106 HIT:          0 MISS:        106
cpu0_L1D PREFETCH REQUESTED:          0 ISSUED:          0 USEFUL:          0 USELESS:          0
cpu0_L1D AVERAGE MISS LATENCY: 32.9 cycles
cpu0_L1I TOTAL        ACCESS:       3931 HIT:       3931 MISS:          0
cpu0_L1I LOAD         ACCESS:       3931 HIT:       3931 MISS:          0
cpu0_L1I RFO          ACCESS:          0 HIT:          0 MISS:          0
cpu0_L1I PREFETCH     ACCESS:          0 HIT:          0 MISS:          0
cpu0_L1I WRITE        ACCESS:          0 HIT:          0 MISS:          0
cpu0_L1I TRANSLATION  ACCESS:          0 HIT:          0 MISS:          0
cpu0_L1I PREFETCH REQUESTED:          0 ISSUED:          0 USEFUL:          0 USELESS:          0
cpu0_L1I AVERAGE MISS LATENCY: -nan cycles
cpu0_L2C TOTAL        ACCESS:      61934 HIT:      58082 MISS:       3852
cpu0_L2C LOAD         ACCESS:      27534 HIT:      24840 MISS:       2694
cpu0_L2C RFO          ACCESS:      15970 HIT:      14906 MISS:       1064
cpu0_L2C PREFETCH     ACCESS:          0 HIT:          0 MISS:          0
cpu0_L2C WRITE        ACCESS:      18324 HIT:      18324 MISS:          0
cpu0_L2C TRANSLATION  ACCESS:        106 HIT:         12 MISS:         94
cpu0_L2C PREFETCH REQUESTED:          0 ISSUED:          0 USEFUL:          0 USELESS:          0
cpu0_L2C AVERAGE MISS LATENCY: 345.7 cycles
cpu0_STLB TOTAL        ACCESS:      30659 HIT:      30603 MISS:         56
cpu0_STLB LOAD         ACCESS:      30659 HIT:      30603 MISS:         56
cpu0_STLB RFO          ACCESS:          0 HIT:          0 MISS:          0
cpu0_STLB PREFETCH     ACCESS:          0 HIT:          0 MISS:          0
cpu0_STLB WRITE        ACCESS:          0 HIT:          0 MISS:          0
cpu0_STLB TRANSLATION  ACCESS:          0 HIT:          0 MISS:          0
cpu0_STLB PREFETCH REQUESTED:          0 ISSUED:          0 USEFUL:          0 USELESS:          0
cpu0_STLB AVERAGE MISS LATENCY: 832.2 cycles

DRAM Statistics

Channel 0 RQ ROW_BUFFER_HIT:        518
  ROW_BUFFER_MISS:       3307
 AVG DBUS CONGESTED CYCLE: 3.704
WQ ROW_BUFFER_HIT: Channel 0 
  ROW_BUFFER_MISS:          0
  FULL:          0
