WARNING: physical memory size is smaller than virtual memory size.

*** ChampSim Multicore Out-of-Order Simulator ***
Warmup Instructions: 1000000
Simulation Instructions: 1000000
Number of CPUs: 1
Page size: 4096

Off-chip DRAM Size: 4 GiB Channels: 1 Width: 64-bit Data Race: 800 MT/s
Warmup finished CPU 0 instructions: 1000003 cycles: 250446 cumulative IPC: 3.993 (Simulation time: 00 hr 00 min 14 sec)
Warmup complete CPU 0 instructions: 1000003 cycles: 250446 cumulative IPC: 3.993 (Simulation time: 00 hr 00 min 14 sec)
Simulation finished CPU 0 instructions: 1000001 cycles: 799897 cumulative IPC: 1.25 (Simulation time: 00 hr 00 min 33 sec)
Simulation complete CPU 0 instructions: 1000001 cycles: 799897 cumulative IPC: 1.25 (Simulation time: 00 hr 00 min 33 sec)

ChampSim completed all CPUs

=== Simulation ===
CPU 0 runs /scratch/cluster/hill/traces/spec2006/cactusADM_1039B.trace.xz
Region of Interest Statistics

CPU 0 cumulative IPC: 1.25 instructions: 1000001 cycles: 799897
CPU 0 Branch Prediction Accuracy: 98.28% MPKI: 0.02 Average ROB Occupancy at Mispredict: 263.8
Branch type MPKI
BRANCH_DIRECT_JUMP: 0
BRANCH_INDIRECT: 0
BRANCH_CONDITIONAL: 0.02
BRANCH_DIRECT_CALL: 0
BRANCH_INDIRECT_CALL: 0
BRANCH_RETURN: 0

LLC TOTAL        ACCESS:       6534 HIT:        835 MISS:       5699
LLC LOAD         ACCESS:       4684 HIT:          0 MISS:       4684
LLC RFO          ACCESS:        852 HIT:          0 MISS:        852
LLC PREFETCH     ACCESS:          0 HIT:          0 MISS:          0
LLC WRITE        ACCESS:        832 HIT:        832 MISS:          0
LLC TRANSLATION  ACCESS:        166 HIT:          3 MISS:        163
LLC PREFETCH REQUESTED:          0 ISSUED:          0 USEFUL:          0 USELESS:          0
LLC AVERAGE MISS LATENCY: 434.9 cycles
cpu0_DTLB TOTAL        ACCESS:     235440 HIT:     218576 MISS:      16864
cpu0_DTLB LOAD         ACCESS:     235440 HIT:     218576 MISS:      16864
cpu0_DTLB RFO          ACCESS:          0 HIT:          0 MISS:          0
cpu0_DTLB PREFETCH     ACCESS:          0 HIT:          0 MISS:          0
cpu0_DTLB WRITE        ACCESS:          0 HIT:          0 MISS:          0
cpu0_DTLB TRANSLATION  ACCESS:          0 HIT:          0 MISS:          0
cpu0_DTLB PREFETCH REQUESTED:          0 ISSUED:          0 USEFUL:          0 USELESS:          0
cpu0_DTLB AVERAGE MISS LATENCY: 16.97 cycles
cpu0_ITLB TOTAL        ACCESS:     151436 HIT:     151436 MISS:          0
cpu0_ITLB LOAD         ACCESS:     151436 HIT:     151436 MISS:          0
cpu0_ITLB RFO          ACCESS:          0 HIT:          0 MISS:          0
cpu0_ITLB PREFETCH     ACCESS:          0 HIT:          0 MISS:          0
cpu0_ITLB WRITE        ACCESS:          0 HIT:          0 MISS:          0
cpu0_ITLB TRANSLATION  ACCESS:          0 HIT:          0 MISS:          0
cpu0_ITLB PREFETCH REQUESTED:          0 ISSUED:          0 USEFUL:          0 USELESS:          0
cpu0_ITLB AVERAGE MISS LATENCY: -nan cycles
cpu0_L1D TOTAL        ACCESS:     360794 HIT:     343162 MISS:      17632
cpu0_L1D LOAD         ACCESS:     246080 HIT:     234116 MISS:      11964
cpu0_L1D RFO          ACCESS:          0 HIT:          0 MISS:          0
cpu0_L1D PREFETCH     ACCESS:          0 HIT:          0 MISS:          0
cpu0_L1D WRITE        ACCESS:     106106 HIT:     104908 MISS:       1198
cpu0_L1D TRANSLATION  ACCESS:       8608 HIT:       4138 MISS:       4470
cpu0_L1D PREFETCH REQUESTED:          0 ISSUED:          0 USEFUL:          0 USELESS:          0
cpu0_L1D AVERAGE MISS LATENCY: 154 cycles
cpu0_L1I TOTAL        ACCESS:     197227 HIT:     197227 MISS:          0
cpu0_L1I LOAD         ACCESS:     197227 HIT:     197227 MISS:          0
cpu0_L1I RFO          ACCESS:          0 HIT:          0 MISS:          0
cpu0_L1I PREFETCH     ACCESS:          0 HIT:          0 MISS:          0
cpu0_L1I WRITE        ACCESS:          0 HIT:          0 MISS:          0
cpu0_L1I TRANSLATION  ACCESS:          0 HIT:          0 MISS:          0
cpu0_L1I PREFETCH REQUESTED:          0 ISSUED:          0 USEFUL:          0 USELESS:          0
cpu0_L1I AVERAGE MISS LATENCY: -nan cycles
cpu0_L2C TOTAL        ACCESS:      16654 HIT:      10951 MISS:       5703
cpu0_L2C LOAD         ACCESS:      10278 HIT:       5594 MISS:       4684
cpu0_L2C RFO          ACCESS:        933 HIT:         81 MISS:        852
cpu0_L2C PREFETCH     ACCESS:          0 HIT:          0 MISS:          0
cpu0_L2C WRITE        ACCESS:        973 HIT:        972 MISS:          1
cpu0_L2C TRANSLATION  ACCESS:       4470 HIT:       4304 MISS:        166
cpu0_L2C PREFETCH REQUESTED:          0 ISSUED:          0 USEFUL:          0 USELESS:          0
cpu0_L2C AVERAGE MISS LATENCY: 455.6 cycles
cpu0_STLB TOTAL        ACCESS:      12457 HIT:       7906 MISS:       4551
cpu0_STLB LOAD         ACCESS:      12457 HIT:       7906 MISS:       4551
cpu0_STLB RFO          ACCESS:          0 HIT:          0 MISS:          0
cpu0_STLB PREFETCH     ACCESS:          0 HIT:          0 MISS:          0
cpu0_STLB WRITE        ACCESS:          0 HIT:          0 MISS:          0
cpu0_STLB TRANSLATION  ACCESS:          0 HIT:          0 MISS:          0
cpu0_STLB PREFETCH REQUESTED:          0 ISSUED:          0 USEFUL:          0 USELESS:          0
cpu0_STLB AVERAGE MISS LATENCY: 43.55 cycles

DRAM Statistics

Channel 0 RQ ROW_BUFFER_HIT:       1113
  ROW_BUFFER_MISS:       4586
 AVG DBUS CONGESTED CYCLE: 3.821
WQ ROW_BUFFER_HIT: Channel 0 
  ROW_BUFFER_MISS:          0
  FULL:          0
