WARNING: physical memory size is smaller than virtual memory size.

*** ChampSim Multicore Out-of-Order Simulator ***
Warmup Instructions: 1000000
Simulation Instructions: 1000000
Number of CPUs: 1
Page size: 4096

Off-chip DRAM Size: 4 GiB Channels: 1 Width: 64-bit Data Race: 800 MT/s
Warmup finished CPU 0 instructions: 1000001 cycles: 258166 cumulative IPC: 3.873 (Simulation time: 00 hr 00 min 27 sec)
Warmup complete CPU 0 instructions: 1000001 cycles: 258166 cumulative IPC: 3.873 (Simulation time: 00 hr 00 min 27 sec)
Simulation finished CPU 0 instructions: 1000003 cycles: 2417985 cumulative IPC: 0.4136 (Simulation time: 00 hr 01 min 32 sec)
Simulation complete CPU 0 instructions: 1000003 cycles: 2417985 cumulative IPC: 0.4136 (Simulation time: 00 hr 01 min 32 sec)

ChampSim completed all CPUs

=== Simulation ===
CPU 0 runs /scratch/cluster/hill/traces/spec2006/bwaves_1609B.trace.xz
Region of Interest Statistics

CPU 0 cumulative IPC: 0.4136 instructions: 1000003 cycles: 2417985
CPU 0 Branch Prediction Accuracy: 89.21% MPKI: 3.229 Average ROB Occupancy at Mispredict: 275.1
Branch type MPKI
BRANCH_DIRECT_JUMP: 0
BRANCH_INDIRECT: 0
BRANCH_CONDITIONAL: 3.23
BRANCH_DIRECT_CALL: 0
BRANCH_INDIRECT_CALL: 0
BRANCH_RETURN: 0

LLC TOTAL        ACCESS:      23352 HIT:        589 MISS:      22763
LLC LOAD         ACCESS:      22169 HIT:          0 MISS:      22169
LLC RFO          ACCESS:        584 HIT:          0 MISS:        584
LLC PREFETCH     ACCESS:          0 HIT:          0 MISS:          0
LLC WRITE        ACCESS:        592 HIT:        587 MISS:          5
LLC TRANSLATION  ACCESS:          7 HIT:          2 MISS:          5
LLC PREFETCH REQUESTED:          0 ISSUED:          0 USEFUL:          0 USELESS:          0
LLC AVERAGE MISS LATENCY: 976.3 cycles
cpu0_DTLB TOTAL        ACCESS:     300703 HIT:     299211 MISS:       1492
cpu0_DTLB LOAD         ACCESS:     300703 HIT:     299211 MISS:       1492
cpu0_DTLB RFO          ACCESS:          0 HIT:          0 MISS:          0
cpu0_DTLB PREFETCH     ACCESS:          0 HIT:          0 MISS:          0
cpu0_DTLB WRITE        ACCESS:          0 HIT:          0 MISS:          0
cpu0_DTLB TRANSLATION  ACCESS:          0 HIT:          0 MISS:          0
cpu0_DTLB PREFETCH REQUESTED:          0 ISSUED:          0 USEFUL:          0 USELESS:          0
cpu0_DTLB AVERAGE MISS LATENCY: 48.39 cycles
cpu0_ITLB TOTAL        ACCESS:          0 HIT:          0 MISS:          0
cpu0_ITLB LOAD         ACCESS:          0 HIT:          0 MISS:          0
cpu0_ITLB RFO          ACCESS:          0 HIT:          0 MISS:          0
cpu0_ITLB PREFETCH     ACCESS:          0 HIT:          0 MISS:          0
cpu0_ITLB WRITE        ACCESS:          0 HIT:          0 MISS:          0
cpu0_ITLB TRANSLATION  ACCESS:          0 HIT:          0 MISS:          0
cpu0_ITLB PREFETCH REQUESTED:          0 ISSUED:          0 USEFUL:          0 USELESS:          0
cpu0_ITLB AVERAGE MISS LATENCY: -nan cycles
cpu0_L1D TOTAL        ACCESS:     358463 HIT:     310119 MISS:      48344
cpu0_L1D LOAD         ACCESS:     330034 HIT:     283726 MISS:      46308
cpu0_L1D RFO          ACCESS:          0 HIT:          0 MISS:          0
cpu0_L1D PREFETCH     ACCESS:          0 HIT:          0 MISS:          0
cpu0_L1D WRITE        ACCESS:      28071 HIT:      26384 MISS:       1687
cpu0_L1D TRANSLATION  ACCESS:        358 HIT:          9 MISS:        349
cpu0_L1D PREFETCH REQUESTED:          0 ISSUED:          0 USEFUL:          0 USELESS:          0
cpu0_L1D AVERAGE MISS LATENCY: 305.7 cycles
cpu0_L1I TOTAL        ACCESS:          0 HIT:          0 MISS:          0
cpu0_L1I LOAD         ACCESS:          0 HIT:          0 MISS:          0
cpu0_L1I RFO          ACCESS:          0 HIT:          0 MISS:          0
cpu0_L1I PREFETCH     ACCESS:          0 HIT:          0 MISS:          0
cpu0_L1I WRITE        ACCESS:          0 HIT:          0 MISS:          0
cpu0_L1I TRANSLATION  ACCESS:          0 HIT:          0 MISS:          0
cpu0_L1I PREFETCH REQUESTED:          0 ISSUED:          0 USEFUL:          0 USELESS:          0
cpu0_L1I AVERAGE MISS LATENCY: -nan cycles
cpu0_L2C TOTAL        ACCESS:      25189 HIT:       2416 MISS:      22773
cpu0_L2C LOAD         ACCESS:      23610 HIT:       1437 MISS:      22173
cpu0_L2C RFO          ACCESS:        592 HIT:          8 MISS:        584
cpu0_L2C PREFETCH     ACCESS:          0 HIT:          0 MISS:          0
cpu0_L2C WRITE        ACCESS:        638 HIT:        629 MISS:          9
cpu0_L2C TRANSLATION  ACCESS:        349 HIT:        342 MISS:          7
cpu0_L2C PREFETCH REQUESTED:          0 ISSUED:          0 USEFUL:          0 USELESS:          0
cpu0_L2C AVERAGE MISS LATENCY: 996.9 cycles
cpu0_STLB TOTAL        ACCESS:        835 HIT:        477 MISS:        358
cpu0_STLB LOAD         ACCESS:        835 HIT:        477 MISS:        358
cpu0_STLB RFO          ACCESS:          0 HIT:          0 MISS:          0
cpu0_STLB PREFETCH     ACCESS:          0 HIT:          0 MISS:          0
cpu0_STLB WRITE        ACCESS:          0 HIT:          0 MISS:          0
cpu0_STLB TRANSLATION  ACCESS:          0 HIT:          0 MISS:          0
cpu0_STLB PREFETCH REQUESTED:          0 ISSUED:          0 USEFUL:          0 USELESS:          0
cpu0_STLB AVERAGE MISS LATENCY: 266.8 cycles

DRAM Statistics

Channel 0 RQ ROW_BUFFER_HIT:      16520
  ROW_BUFFER_MISS:       6231
 AVG DBUS CONGESTED CYCLE: 3.751
WQ ROW_BUFFER_HIT: Channel 0 
  ROW_BUFFER_MISS:        244
  FULL:        126
