WARNING: physical memory size is smaller than virtual memory size.

*** ChampSim Multicore Out-of-Order Simulator ***
Warmup Instructions: 1000000
Simulation Instructions: 1000000
Number of CPUs: 1
Page size: 4096

Off-chip DRAM Size: 4 GiB Channels: 1 Width: 64-bit Data Race: 800 MT/s
Warmup finished CPU 0 instructions: 1000001 cycles: 250112 cumulative IPC: 3.998 (Simulation time: 00 hr 00 min 13 sec)
Warmup complete CPU 0 instructions: 1000001 cycles: 250112 cumulative IPC: 3.998 (Simulation time: 00 hr 00 min 13 sec)
Simulation finished CPU 0 instructions: 1000001 cycles: 284530 cumulative IPC: 3.515 (Simulation time: 00 hr 00 min 28 sec)
Simulation complete CPU 0 instructions: 1000001 cycles: 284530 cumulative IPC: 3.515 (Simulation time: 00 hr 00 min 28 sec)

ChampSim completed all CPUs

=== Simulation ===
CPU 0 runs /scratch/cluster/hill/traces/spec2006/hmmer_7B.trace.xz
Region of Interest Statistics

CPU 0 cumulative IPC: 3.515 instructions: 1000001 cycles: 284530
CPU 0 Branch Prediction Accuracy: 99.42% MPKI: 0.216 Average ROB Occupancy at Mispredict: 256.7
Branch type MPKI
BRANCH_DIRECT_JUMP: 0
BRANCH_INDIRECT: 0
BRANCH_CONDITIONAL: 0.216
BRANCH_DIRECT_CALL: 0
BRANCH_INDIRECT_CALL: 0
BRANCH_RETURN: 0

LLC TOTAL        ACCESS:       5885 HIT:       2748 MISS:       3137
LLC LOAD         ACCESS:        164 HIT:        101 MISS:         63
LLC RFO          ACCESS:       3074 HIT:          0 MISS:       3074
LLC PREFETCH     ACCESS:          0 HIT:          0 MISS:          0
LLC WRITE        ACCESS:       2646 HIT:       2646 MISS:          0
LLC TRANSLATION  ACCESS:          1 HIT:          1 MISS:          0
LLC PREFETCH REQUESTED:          0 ISSUED:          0 USEFUL:          0 USELESS:          0
LLC AVERAGE MISS LATENCY: 364.5 cycles
cpu0_DTLB TOTAL        ACCESS:     245403 HIT:     245201 MISS:        202
cpu0_DTLB LOAD         ACCESS:     245403 HIT:     245201 MISS:        202
cpu0_DTLB RFO          ACCESS:          0 HIT:          0 MISS:          0
cpu0_DTLB PREFETCH     ACCESS:          0 HIT:          0 MISS:          0
cpu0_DTLB WRITE        ACCESS:          0 HIT:          0 MISS:          0
cpu0_DTLB TRANSLATION  ACCESS:          0 HIT:          0 MISS:          0
cpu0_DTLB PREFETCH REQUESTED:          0 ISSUED:          0 USEFUL:          0 USELESS:          0
cpu0_DTLB AVERAGE MISS LATENCY: 43.48 cycles
cpu0_ITLB TOTAL        ACCESS:          0 HIT:          0 MISS:          0
cpu0_ITLB LOAD         ACCESS:          0 HIT:          0 MISS:          0
cpu0_ITLB RFO          ACCESS:          0 HIT:          0 MISS:          0
cpu0_ITLB PREFETCH     ACCESS:          0 HIT:          0 MISS:          0
cpu0_ITLB WRITE        ACCESS:          0 HIT:          0 MISS:          0
cpu0_ITLB TRANSLATION  ACCESS:          0 HIT:          0 MISS:          0
cpu0_ITLB PREFETCH REQUESTED:          0 ISSUED:          0 USEFUL:          0 USELESS:          0
cpu0_ITLB AVERAGE MISS LATENCY: -nan cycles
cpu0_L1D TOTAL        ACCESS:     350498 HIT:     207794 MISS:     142704
cpu0_L1D LOAD         ACCESS:     193301 HIT:     190167 MISS:       3134
cpu0_L1D RFO          ACCESS:          0 HIT:          0 MISS:          0
cpu0_L1D PREFETCH     ACCESS:          0 HIT:          0 MISS:          0
cpu0_L1D WRITE        ACCESS:     157147 HIT:      17623 MISS:     139524
cpu0_L1D TRANSLATION  ACCESS:         50 HIT:          4 MISS:         46
cpu0_L1D PREFETCH REQUESTED:          0 ISSUED:          0 USEFUL:          0 USELESS:          0
cpu0_L1D AVERAGE MISS LATENCY: 4.303 cycles
cpu0_L1I TOTAL        ACCESS:          0 HIT:          0 MISS:          0
cpu0_L1I LOAD         ACCESS:          0 HIT:          0 MISS:          0
cpu0_L1I RFO          ACCESS:          0 HIT:          0 MISS:          0
cpu0_L1I PREFETCH     ACCESS:          0 HIT:          0 MISS:          0
cpu0_L1I WRITE        ACCESS:          0 HIT:          0 MISS:          0
cpu0_L1I TRANSLATION  ACCESS:          0 HIT:          0 MISS:          0
cpu0_L1I PREFETCH REQUESTED:          0 ISSUED:          0 USEFUL:          0 USELESS:          0
cpu0_L1I AVERAGE MISS LATENCY: -nan cycles
cpu0_L2C TOTAL        ACCESS:       8720 HIT:       5481 MISS:       3239
cpu0_L2C LOAD         ACCESS:       2532 HIT:       2368 MISS:        164
cpu0_L2C RFO          ACCESS:       3074 HIT:          0 MISS:       3074
cpu0_L2C PREFETCH     ACCESS:          0 HIT:          0 MISS:          0
cpu0_L2C WRITE        ACCESS:       3068 HIT:       3068 MISS:          0
cpu0_L2C TRANSLATION  ACCESS:         46 HIT:         45 MISS:          1
cpu0_L2C PREFETCH REQUESTED:          0 ISSUED:          0 USEFUL:          0 USELESS:          0
cpu0_L2C AVERAGE MISS LATENCY: 373.9 cycles
cpu0_STLB TOTAL        ACCESS:         50 HIT:          0 MISS:         50
cpu0_STLB LOAD         ACCESS:         50 HIT:          0 MISS:         50
cpu0_STLB RFO          ACCESS:          0 HIT:          0 MISS:          0
cpu0_STLB PREFETCH     ACCESS:          0 HIT:          0 MISS:          0
cpu0_STLB WRITE        ACCESS:          0 HIT:          0 MISS:          0
cpu0_STLB TRANSLATION  ACCESS:          0 HIT:          0 MISS:          0
cpu0_STLB PREFETCH REQUESTED:          0 ISSUED:          0 USEFUL:          0 USELESS:          0
cpu0_STLB AVERAGE MISS LATENCY: 217.3 cycles

DRAM Statistics

Channel 0 RQ ROW_BUFFER_HIT:       2757
  ROW_BUFFER_MISS:        377
 AVG DBUS CONGESTED CYCLE: 3.979
WQ ROW_BUFFER_HIT: Channel 0 
  ROW_BUFFER_MISS:          0
  FULL:          0
