WARNING: physical memory size is smaller than virtual memory size.

*** ChampSim Multicore Out-of-Order Simulator ***
Warmup Instructions: 5000000
Simulation Instructions: 5000000
Number of CPUs: 1
Page size: 4096

Off-chip DRAM Size: 4 GiB Channels: 1 Width: 64-bit Data Race: 800 MT/s
Warmup finished CPU 0 instructions: 5000000 cycles: 1250113 cumulative IPC: 4 (Simulation time: 00 hr 00 min 47 sec)
Warmup complete CPU 0 instructions: 5000000 cycles: 1250113 cumulative IPC: 4 (Simulation time: 00 hr 00 min 47 sec)
Heartbeat CPU 0 instructions: 10000003 cycles: 2630063 heartbeat IPC: 3.802 cumulative IPC: 3.623 (Simulation time: 00 hr 01 min 45 sec)
Simulation finished CPU 0 instructions: 5000003 cycles: 1379951 cumulative IPC: 3.623 (Simulation time: 00 hr 01 min 45 sec)
Simulation complete CPU 0 instructions: 5000003 cycles: 1379951 cumulative IPC: 3.623 (Simulation time: 00 hr 01 min 45 sec)

ChampSim completed all CPUs

=== Simulation ===
CPU 0 runs /scratch/cluster/hill/traces/spec2006/hmmer_397B.trace.xz
Region of Interest Statistics

CPU 0 cumulative IPC: 3.623 instructions: 5000003 cycles: 1379951
CPU 0 Branch Prediction Accuracy: 99.78% MPKI: 0.0806 Average ROB Occupancy at Mispredict: 283.2
Branch type MPKI
BRANCH_DIRECT_JUMP: 0
BRANCH_INDIRECT: 0
BRANCH_CONDITIONAL: 0.0806
BRANCH_DIRECT_CALL: 0
BRANCH_INDIRECT_CALL: 0
BRANCH_RETURN: 0

LLC TOTAL        ACCESS:      31644 HIT:      16136 MISS:      15508
LLC LOAD         ACCESS:       1043 HIT:        904 MISS:        139
LLC RFO          ACCESS:      15369 HIT:          0 MISS:      15369
LLC PREFETCH     ACCESS:          0 HIT:          0 MISS:          0
LLC WRITE        ACCESS:      15230 HIT:      15230 MISS:          0
LLC TRANSLATION  ACCESS:          2 HIT:          2 MISS:          0
LLC PREFETCH REQUESTED:          0 ISSUED:          0 USEFUL:          0 USELESS:          0
LLC AVERAGE MISS LATENCY: 366.2 cycles
cpu0_DTLB TOTAL        ACCESS:    1234718 HIT:    1233628 MISS:       1090
cpu0_DTLB LOAD         ACCESS:    1234718 HIT:    1233628 MISS:       1090
cpu0_DTLB RFO          ACCESS:          0 HIT:          0 MISS:          0
cpu0_DTLB PREFETCH     ACCESS:          0 HIT:          0 MISS:          0
cpu0_DTLB WRITE        ACCESS:          0 HIT:          0 MISS:          0
cpu0_DTLB TRANSLATION  ACCESS:          0 HIT:          0 MISS:          0
cpu0_DTLB PREFETCH REQUESTED:          0 ISSUED:          0 USEFUL:          0 USELESS:          0
cpu0_DTLB AVERAGE MISS LATENCY: 39.85 cycles
cpu0_ITLB TOTAL        ACCESS:          0 HIT:          0 MISS:          0
cpu0_ITLB LOAD         ACCESS:          0 HIT:          0 MISS:          0
cpu0_ITLB RFO          ACCESS:          0 HIT:          0 MISS:          0
cpu0_ITLB PREFETCH     ACCESS:          0 HIT:          0 MISS:          0
cpu0_ITLB WRITE        ACCESS:          0 HIT:          0 MISS:          0
cpu0_ITLB TRANSLATION  ACCESS:          0 HIT:          0 MISS:          0
cpu0_ITLB PREFETCH REQUESTED:          0 ISSUED:          0 USEFUL:          0 USELESS:          0
cpu0_ITLB AVERAGE MISS LATENCY: -nan cycles
cpu0_L1D TOTAL        ACCESS:    1763577 HIT:    1060887 MISS:     702690
cpu0_L1D LOAD         ACCESS:     973929 HIT:     960705 MISS:      13224
cpu0_L1D RFO          ACCESS:          0 HIT:          0 MISS:          0
cpu0_L1D PREFETCH     ACCESS:          0 HIT:          0 MISS:          0
cpu0_L1D WRITE        ACCESS:     789405 HIT:     100135 MISS:     689270
cpu0_L1D TRANSLATION  ACCESS:        243 HIT:         47 MISS:        196
cpu0_L1D PREFETCH REQUESTED:          0 ISSUED:          0 USEFUL:          0 USELESS:          0
cpu0_L1D AVERAGE MISS LATENCY: 4.361 cycles
cpu0_L1I TOTAL        ACCESS:          0 HIT:          0 MISS:          0
cpu0_L1I LOAD         ACCESS:          0 HIT:          0 MISS:          0
cpu0_L1I RFO          ACCESS:          0 HIT:          0 MISS:          0
cpu0_L1I PREFETCH     ACCESS:          0 HIT:          0 MISS:          0
cpu0_L1I WRITE        ACCESS:          0 HIT:          0 MISS:          0
cpu0_L1I TRANSLATION  ACCESS:          0 HIT:          0 MISS:          0
cpu0_L1I PREFETCH REQUESTED:          0 ISSUED:          0 USEFUL:          0 USELESS:          0
cpu0_L1I AVERAGE MISS LATENCY: -nan cycles
cpu0_L2C TOTAL        ACCESS:      42046 HIT:      25632 MISS:      16414
cpu0_L2C LOAD         ACCESS:      11157 HIT:      10114 MISS:       1043
cpu0_L2C RFO          ACCESS:      15369 HIT:          0 MISS:      15369
cpu0_L2C PREFETCH     ACCESS:          0 HIT:          0 MISS:          0
cpu0_L2C WRITE        ACCESS:      15324 HIT:      15324 MISS:          0
cpu0_L2C TRANSLATION  ACCESS:        196 HIT:        194 MISS:          2
cpu0_L2C PREFETCH REQUESTED:          0 ISSUED:          0 USEFUL:          0 USELESS:          0
cpu0_L2C AVERAGE MISS LATENCY: 366.9 cycles
cpu0_STLB TOTAL        ACCESS:        258 HIT:         15 MISS:        243
cpu0_STLB LOAD         ACCESS:        258 HIT:         15 MISS:        243
cpu0_STLB RFO          ACCESS:          0 HIT:          0 MISS:          0
cpu0_STLB PREFETCH     ACCESS:          0 HIT:          0 MISS:          0
cpu0_STLB WRITE        ACCESS:          0 HIT:          0 MISS:          0
cpu0_STLB TRANSLATION  ACCESS:          0 HIT:          0 MISS:          0
cpu0_STLB PREFETCH REQUESTED:          0 ISSUED:          0 USEFUL:          0 USELESS:          0
cpu0_STLB AVERAGE MISS LATENCY: 215.4 cycles

DRAM Statistics

Channel 0 RQ ROW_BUFFER_HIT:      13968
  ROW_BUFFER_MISS:       1525
 AVG DBUS CONGESTED CYCLE: 3.977
WQ ROW_BUFFER_HIT: Channel 0 
  ROW_BUFFER_MISS:         13
  FULL:         55
