WARNING: physical memory size is smaller than virtual memory size.

*** ChampSim Multicore Out-of-Order Simulator ***
Warmup Instructions: 5000000
Simulation Instructions: 5000000
Number of CPUs: 1
Page size: 4096

Off-chip DRAM Size: 4 GiB Channels: 1 Width: 64-bit Data Race: 800 MT/s
Warmup finished CPU 0 instructions: 5000000 cycles: 1302167 cumulative IPC: 3.84 (Simulation time: 00 hr 00 min 12 sec)
Warmup complete CPU 0 instructions: 5000000 cycles: 1302167 cumulative IPC: 3.84 (Simulation time: 00 hr 00 min 12 sec)
Heartbeat CPU 0 instructions: 10000003 cycles: 26366221 heartbeat IPC: 0.3793 cumulative IPC: 0.1995 (Simulation time: 00 hr 02 min 11 sec)
Simulation finished CPU 0 instructions: 5000003 cycles: 25064055 cumulative IPC: 0.1995 (Simulation time: 00 hr 02 min 11 sec)
Simulation complete CPU 0 instructions: 5000003 cycles: 25064055 cumulative IPC: 0.1995 (Simulation time: 00 hr 02 min 11 sec)

ChampSim completed all CPUs

=== Simulation ===
CPU 0 runs /scratch/cluster/hill/traces/spec2006/lbm_94B.trace.xz
Region of Interest Statistics

CPU 0 cumulative IPC: 0.1995 instructions: 5000003 cycles: 25064055
CPU 0 Branch Prediction Accuracy: 99.49% MPKI: 0.0638 Average ROB Occupancy at Mispredict: 319.7
Branch type MPKI
BRANCH_DIRECT_JUMP: 0
BRANCH_INDIRECT: 0
BRANCH_CONDITIONAL: 0.0638
BRANCH_DIRECT_CALL: 0
BRANCH_INDIRECT_CALL: 0
BRANCH_RETURN: 0

LLC TOTAL        ACCESS:     306625 HIT:     134249 MISS:     172376
LLC LOAD         ACCESS:      43099 HIT:          6 MISS:      43093
LLC RFO          ACCESS:     131340 HIT:       2078 MISS:     129262
LLC PREFETCH     ACCESS:          0 HIT:          0 MISS:          0
LLC WRITE        ACCESS:     132116 HIT:     132111 MISS:          5
LLC TRANSLATION  ACCESS:         70 HIT:         54 MISS:         16
LLC PREFETCH REQUESTED:          0 ISSUED:          0 USEFUL:          0 USELESS:          0
LLC AVERAGE MISS LATENCY: 1892 cycles
cpu0_DTLB TOTAL        ACCESS:     870513 HIT:     866741 MISS:       3772
cpu0_DTLB LOAD         ACCESS:     870513 HIT:     866741 MISS:       3772
cpu0_DTLB RFO          ACCESS:          0 HIT:          0 MISS:          0
cpu0_DTLB PREFETCH     ACCESS:          0 HIT:          0 MISS:          0
cpu0_DTLB WRITE        ACCESS:          0 HIT:          0 MISS:          0
cpu0_DTLB TRANSLATION  ACCESS:          0 HIT:          0 MISS:          0
cpu0_DTLB PREFETCH REQUESTED:          0 ISSUED:          0 USEFUL:          0 USELESS:          0
cpu0_DTLB AVERAGE MISS LATENCY: 231.5 cycles
cpu0_ITLB TOTAL        ACCESS:          0 HIT:          0 MISS:          0
cpu0_ITLB LOAD         ACCESS:          0 HIT:          0 MISS:          0
cpu0_ITLB RFO          ACCESS:          0 HIT:          0 MISS:          0
cpu0_ITLB PREFETCH     ACCESS:          0 HIT:          0 MISS:          0
cpu0_ITLB WRITE        ACCESS:          0 HIT:          0 MISS:          0
cpu0_ITLB TRANSLATION  ACCESS:          0 HIT:          0 MISS:          0
cpu0_ITLB PREFETCH REQUESTED:          0 ISSUED:          0 USEFUL:          0 USELESS:          0
cpu0_ITLB AVERAGE MISS LATENCY: -nan cycles
cpu0_L1D TOTAL        ACCESS:    1046721 HIT:     500712 MISS:     546009
cpu0_L1D LOAD         ACCESS:     495310 HIT:     199770 MISS:     295540
cpu0_L1D RFO          ACCESS:          0 HIT:          0 MISS:          0
cpu0_L1D PREFETCH     ACCESS:          0 HIT:          0 MISS:          0
cpu0_L1D WRITE        ACCESS:     548714 HIT:     300659 MISS:     248055
cpu0_L1D TRANSLATION  ACCESS:       2697 HIT:        283 MISS:       2414
cpu0_L1D PREFETCH REQUESTED:          0 ISSUED:          0 USEFUL:          0 USELESS:          0
cpu0_L1D AVERAGE MISS LATENCY: 552 cycles
cpu0_L1I TOTAL        ACCESS:          0 HIT:          0 MISS:          0
cpu0_L1I LOAD         ACCESS:          0 HIT:          0 MISS:          0
cpu0_L1I RFO          ACCESS:          0 HIT:          0 MISS:          0
cpu0_L1I PREFETCH     ACCESS:          0 HIT:          0 MISS:          0
cpu0_L1I WRITE        ACCESS:          0 HIT:          0 MISS:          0
cpu0_L1I TRANSLATION  ACCESS:          0 HIT:          0 MISS:          0
cpu0_L1I PREFETCH REQUESTED:          0 ISSUED:          0 USEFUL:          0 USELESS:          0
cpu0_L1I AVERAGE MISS LATENCY: -nan cycles
cpu0_L2C TOTAL        ACCESS:     531242 HIT:     356733 MISS:     174509
cpu0_L2C LOAD         ACCESS:      43259 HIT:        160 MISS:      43099
cpu0_L2C RFO          ACCESS:     242783 HIT:     111443 MISS:     131340
cpu0_L2C PREFETCH     ACCESS:          0 HIT:          0 MISS:          0
cpu0_L2C WRITE        ACCESS:     242786 HIT:     242786 MISS:          0
cpu0_L2C TRANSLATION  ACCESS:       2414 HIT:       2344 MISS:         70
cpu0_L2C PREFETCH REQUESTED:          0 ISSUED:          0 USEFUL:          0 USELESS:          0
cpu0_L2C AVERAGE MISS LATENCY: 1890 cycles
cpu0_STLB TOTAL        ACCESS:       2695 HIT:          0 MISS:       2695
cpu0_STLB LOAD         ACCESS:       2695 HIT:          0 MISS:       2695
cpu0_STLB RFO          ACCESS:          0 HIT:          0 MISS:          0
cpu0_STLB PREFETCH     ACCESS:          0 HIT:          0 MISS:          0
cpu0_STLB WRITE        ACCESS:          0 HIT:          0 MISS:          0
cpu0_STLB TRANSLATION  ACCESS:          0 HIT:          0 MISS:          0
cpu0_STLB PREFETCH REQUESTED:          0 ISSUED:          0 USEFUL:          0 USELESS:          0
cpu0_STLB AVERAGE MISS LATENCY: 355.7 cycles

DRAM Statistics

Channel 0 RQ ROW_BUFFER_HIT:      12717
  ROW_BUFFER_MISS:     159647
 AVG DBUS CONGESTED CYCLE: 3.977
WQ ROW_BUFFER_HIT: Channel 0 
  ROW_BUFFER_MISS:       8211
  FULL:     124719
