WARNING: physical memory size is smaller than virtual memory size.

*** ChampSim Multicore Out-of-Order Simulator ***
Warmup Instructions: 1000000
Simulation Instructions: 1000000
Number of CPUs: 1
Page size: 4096

Off-chip DRAM Size: 4 GiB Channels: 1 Width: 64-bit Data Race: 800 MT/s
Warmup finished CPU 0 instructions: 1000003 cycles: 250088 cumulative IPC: 3.999 (Simulation time: 00 hr 00 min 03 sec)
Warmup complete CPU 0 instructions: 1000003 cycles: 250088 cumulative IPC: 3.999 (Simulation time: 00 hr 00 min 03 sec)
Simulation finished CPU 0 instructions: 1000002 cycles: 315699 cumulative IPC: 3.168 (Simulation time: 00 hr 00 min 08 sec)
Simulation complete CPU 0 instructions: 1000002 cycles: 315699 cumulative IPC: 3.168 (Simulation time: 00 hr 00 min 08 sec)

ChampSim completed all CPUs

=== Simulation ===
CPU 0 runs /scratch/cluster/hill/traces/spec2006/gcc_39B.trace.xz
Region of Interest Statistics

CPU 0 cumulative IPC: 3.168 instructions: 1000002 cycles: 315699
CPU 0 Branch Prediction Accuracy: 99.57% MPKI: 0.975 Average ROB Occupancy at Mispredict: 68.11
Branch type MPKI
BRANCH_DIRECT_JUMP: 0.015
BRANCH_INDIRECT: 0.01
BRANCH_CONDITIONAL: 0.931
BRANCH_DIRECT_CALL: 0.003
BRANCH_INDIRECT_CALL: 0.008
BRANCH_RETURN: 0.008

LLC TOTAL        ACCESS:        355 HIT:          0 MISS:        355
LLC LOAD         ACCESS:        248 HIT:          0 MISS:        248
LLC RFO          ACCESS:         43 HIT:          0 MISS:         43
LLC PREFETCH     ACCESS:          0 HIT:          0 MISS:          0
LLC WRITE        ACCESS:          0 HIT:          0 MISS:          0
LLC TRANSLATION  ACCESS:         64 HIT:          0 MISS:         64
LLC PREFETCH REQUESTED:          0 ISSUED:          0 USEFUL:          0 USELESS:          0
LLC AVERAGE MISS LATENCY: 201.8 cycles
cpu0_DTLB TOTAL        ACCESS:     221779 HIT:     221448 MISS:        331
cpu0_DTLB LOAD         ACCESS:     221779 HIT:     221448 MISS:        331
cpu0_DTLB RFO          ACCESS:          0 HIT:          0 MISS:          0
cpu0_DTLB PREFETCH     ACCESS:          0 HIT:          0 MISS:          0
cpu0_DTLB WRITE        ACCESS:          0 HIT:          0 MISS:          0
cpu0_DTLB TRANSLATION  ACCESS:          0 HIT:          0 MISS:          0
cpu0_DTLB PREFETCH REQUESTED:          0 ISSUED:          0 USEFUL:          0 USELESS:          0
cpu0_DTLB AVERAGE MISS LATENCY: 90.21 cycles
cpu0_ITLB TOTAL        ACCESS:         65 HIT:         63 MISS:          2
cpu0_ITLB LOAD         ACCESS:         65 HIT:         63 MISS:          2
cpu0_ITLB RFO          ACCESS:          0 HIT:          0 MISS:          0
cpu0_ITLB PREFETCH     ACCESS:          0 HIT:          0 MISS:          0
cpu0_ITLB WRITE        ACCESS:          0 HIT:          0 MISS:          0
cpu0_ITLB TRANSLATION  ACCESS:          0 HIT:          0 MISS:          0
cpu0_ITLB PREFETCH REQUESTED:          0 ISSUED:          0 USEFUL:          0 USELESS:          0
cpu0_ITLB AVERAGE MISS LATENCY: 246.5 cycles
cpu0_L1D TOTAL        ACCESS:     308970 HIT:     297578 MISS:      11392
cpu0_L1D LOAD         ACCESS:     132490 HIT:     121402 MISS:      11088
cpu0_L1D RFO          ACCESS:          0 HIT:          0 MISS:          0
cpu0_L1D PREFETCH     ACCESS:          0 HIT:          0 MISS:          0
cpu0_L1D WRITE        ACCESS:     176411 HIT:     176174 MISS:        237
cpu0_L1D TRANSLATION  ACCESS:         69 HIT:          2 MISS:         67
cpu0_L1D PREFETCH REQUESTED:          0 ISSUED:          0 USEFUL:          0 USELESS:          0
cpu0_L1D AVERAGE MISS LATENCY: 13.69 cycles
cpu0_L1I TOTAL        ACCESS:         71 HIT:         44 MISS:         27
cpu0_L1I LOAD         ACCESS:         71 HIT:         44 MISS:         27
cpu0_L1I RFO          ACCESS:          0 HIT:          0 MISS:          0
cpu0_L1I PREFETCH     ACCESS:          0 HIT:          0 MISS:          0
cpu0_L1I WRITE        ACCESS:          0 HIT:          0 MISS:          0
cpu0_L1I TRANSLATION  ACCESS:          0 HIT:          0 MISS:          0
cpu0_L1I PREFETCH REQUESTED:          0 ISSUED:          0 USEFUL:          0 USELESS:          0
cpu0_L1I AVERAGE MISS LATENCY: 163.5 cycles
cpu0_L2C TOTAL        ACCESS:       9621 HIT:       9266 MISS:        355
cpu0_L2C LOAD         ACCESS:       9257 HIT:       9009 MISS:        248
cpu0_L2C RFO          ACCESS:         57 HIT:         14 MISS:         43
cpu0_L2C PREFETCH     ACCESS:          0 HIT:          0 MISS:          0
cpu0_L2C WRITE        ACCESS:        240 HIT:        240 MISS:          0
cpu0_L2C TRANSLATION  ACCESS:         67 HIT:          3 MISS:         64
cpu0_L2C PREFETCH REQUESTED:          0 ISSUED:          0 USEFUL:          0 USELESS:          0
cpu0_L2C AVERAGE MISS LATENCY: 222.8 cycles
cpu0_STLB TOTAL        ACCESS:        236 HIT:        175 MISS:         61
cpu0_STLB LOAD         ACCESS:        236 HIT:        175 MISS:         61
cpu0_STLB RFO          ACCESS:          0 HIT:          0 MISS:          0
cpu0_STLB PREFETCH     ACCESS:          0 HIT:          0 MISS:          0
cpu0_STLB WRITE        ACCESS:          0 HIT:          0 MISS:          0
cpu0_STLB TRANSLATION  ACCESS:          0 HIT:          0 MISS:          0
cpu0_STLB PREFETCH REQUESTED:          0 ISSUED:          0 USEFUL:          0 USELESS:          0
cpu0_STLB AVERAGE MISS LATENCY: 483.1 cycles

DRAM Statistics

Channel 0 RQ ROW_BUFFER_HIT:         79
  ROW_BUFFER_MISS:        276
 AVG DBUS CONGESTED CYCLE: 3.538
WQ ROW_BUFFER_HIT: Channel 0 
  ROW_BUFFER_MISS:          0
  FULL:          0
