WARNING: physical memory size is smaller than virtual memory size.

*** ChampSim Multicore Out-of-Order Simulator ***
Warmup Instructions: 1000000
Simulation Instructions: 1000000
Number of CPUs: 1
Page size: 4096

Off-chip DRAM Size: 4 GiB Channels: 1 Width: 64-bit Data Race: 800 MT/s
Warmup finished CPU 0 instructions: 1000000 cycles: 250070 cumulative IPC: 3.999 (Simulation time: 00 hr 00 min 03 sec)
Warmup complete CPU 0 instructions: 1000000 cycles: 250070 cumulative IPC: 3.999 (Simulation time: 00 hr 00 min 03 sec)
Simulation finished CPU 0 instructions: 1000001 cycles: 1110522 cumulative IPC: 0.9005 (Simulation time: 00 hr 00 min 14 sec)
Simulation complete CPU 0 instructions: 1000001 cycles: 1110522 cumulative IPC: 0.9005 (Simulation time: 00 hr 00 min 14 sec)

ChampSim completed all CPUs

=== Simulation ===
CPU 0 runs /scratch/cluster/hill/traces/spec2006/sphinx3_1339B.trace.xz
Region of Interest Statistics

CPU 0 cumulative IPC: 0.9005 instructions: 1000001 cycles: 1110522
CPU 0 Branch Prediction Accuracy: 92.36% MPKI: 4.966 Average ROB Occupancy at Mispredict: 233.5
Branch type MPKI
BRANCH_DIRECT_JUMP: 0.147
BRANCH_INDIRECT: 0
BRANCH_CONDITIONAL: 4.77
BRANCH_DIRECT_CALL: 0.006
BRANCH_INDIRECT_CALL: 0
BRANCH_RETURN: 0.038

LLC TOTAL        ACCESS:      15329 HIT:       1236 MISS:      14093
LLC LOAD         ACCESS:      14200 HIT:        785 MISS:      13415
LLC RFO          ACCESS:        475 HIT:          0 MISS:        475
LLC PREFETCH     ACCESS:          0 HIT:          0 MISS:          0
LLC WRITE        ACCESS:        439 HIT:        439 MISS:          0
LLC TRANSLATION  ACCESS:        215 HIT:         12 MISS:        203
LLC PREFETCH REQUESTED:          0 ISSUED:          0 USEFUL:          0 USELESS:          0
LLC AVERAGE MISS LATENCY: 260.2 cycles
cpu0_DTLB TOTAL        ACCESS:     194259 HIT:     190005 MISS:       4254
cpu0_DTLB LOAD         ACCESS:     194259 HIT:     190005 MISS:       4254
cpu0_DTLB RFO          ACCESS:          0 HIT:          0 MISS:          0
cpu0_DTLB PREFETCH     ACCESS:          0 HIT:          0 MISS:          0
cpu0_DTLB WRITE        ACCESS:          0 HIT:          0 MISS:          0
cpu0_DTLB TRANSLATION  ACCESS:          0 HIT:          0 MISS:          0
cpu0_DTLB PREFETCH REQUESTED:          0 ISSUED:          0 USEFUL:          0 USELESS:          0
cpu0_DTLB AVERAGE MISS LATENCY: 33.26 cycles
cpu0_ITLB TOTAL        ACCESS:         44 HIT:         38 MISS:          6
cpu0_ITLB LOAD         ACCESS:         44 HIT:         38 MISS:          6
cpu0_ITLB RFO          ACCESS:          0 HIT:          0 MISS:          0
cpu0_ITLB PREFETCH     ACCESS:          0 HIT:          0 MISS:          0
cpu0_ITLB WRITE        ACCESS:          0 HIT:          0 MISS:          0
cpu0_ITLB TRANSLATION  ACCESS:          0 HIT:          0 MISS:          0
cpu0_ITLB PREFETCH REQUESTED:          0 ISSUED:          0 USEFUL:          0 USELESS:          0
cpu0_ITLB AVERAGE MISS LATENCY: 308.2 cycles
cpu0_L1D TOTAL        ACCESS:     234723 HIT:      82074 MISS:     152649
cpu0_L1D LOAD         ACCESS:     220105 HIT:      69862 MISS:     150243
cpu0_L1D RFO          ACCESS:          0 HIT:          0 MISS:          0
cpu0_L1D PREFETCH     ACCESS:          0 HIT:          0 MISS:          0
cpu0_L1D WRITE        ACCESS:      14069 HIT:      11988 MISS:       2081
cpu0_L1D TRANSLATION  ACCESS:        549 HIT:        224 MISS:        325
cpu0_L1D PREFETCH REQUESTED:          0 ISSUED:          0 USEFUL:          0 USELESS:          0
cpu0_L1D AVERAGE MISS LATENCY: 13.6 cycles
cpu0_L1I TOTAL        ACCESS:         52 HIT:         15 MISS:         37
cpu0_L1I LOAD         ACCESS:         52 HIT:         15 MISS:         37
cpu0_L1I RFO          ACCESS:          0 HIT:          0 MISS:          0
cpu0_L1I PREFETCH     ACCESS:          0 HIT:          0 MISS:          0
cpu0_L1I WRITE        ACCESS:          0 HIT:          0 MISS:          0
cpu0_L1I TRANSLATION  ACCESS:          0 HIT:          0 MISS:          0
cpu0_L1I PREFETCH REQUESTED:          0 ISSUED:          0 USEFUL:          0 USELESS:          0
cpu0_L1I AVERAGE MISS LATENCY: 183.6 cycles
cpu0_L2C TOTAL        ACCESS:      16828 HIT:       1936 MISS:      14892
cpu0_L2C LOAD         ACCESS:      15549 HIT:       1349 MISS:      14200
cpu0_L2C RFO          ACCESS:        476 HIT:          1 MISS:        475
cpu0_L2C PREFETCH     ACCESS:          0 HIT:          0 MISS:          0
cpu0_L2C WRITE        ACCESS:        491 HIT:        489 MISS:          2
cpu0_L2C TRANSLATION  ACCESS:        312 HIT:         97 MISS:        215
cpu0_L2C PREFETCH REQUESTED:          0 ISSUED:          0 USEFUL:          0 USELESS:          0
cpu0_L2C AVERAGE MISS LATENCY: 267.2 cycles
cpu0_STLB TOTAL        ACCESS:       1115 HIT:        575 MISS:        540
cpu0_STLB LOAD         ACCESS:       1115 HIT:        575 MISS:        540
cpu0_STLB RFO          ACCESS:          0 HIT:          0 MISS:          0
cpu0_STLB PREFETCH     ACCESS:          0 HIT:          0 MISS:          0
cpu0_STLB WRITE        ACCESS:          0 HIT:          0 MISS:          0
cpu0_STLB TRANSLATION  ACCESS:          0 HIT:          0 MISS:          0
cpu0_STLB PREFETCH REQUESTED:          0 ISSUED:          0 USEFUL:          0 USELESS:          0
cpu0_STLB AVERAGE MISS LATENCY: 371.1 cycles

DRAM Statistics

Channel 0 RQ ROW_BUFFER_HIT:      11112
  ROW_BUFFER_MISS:       2981
 AVG DBUS CONGESTED CYCLE: 3.876
WQ ROW_BUFFER_HIT: Channel 0 
  ROW_BUFFER_MISS:          3
  FULL:          0
