WARNING: physical memory size is smaller than virtual memory size.

*** ChampSim Multicore Out-of-Order Simulator ***
Warmup Instructions: 1000000
Simulation Instructions: 1000000
Number of CPUs: 1
Page size: 4096

Off-chip DRAM Size: 4 GiB Channels: 1 Width: 64-bit Data Race: 800 MT/s
Warmup finished CPU 0 instructions: 1000003 cycles: 250446 cumulative IPC: 3.993 (Simulation time: 00 hr 00 min 04 sec)
Warmup complete CPU 0 instructions: 1000003 cycles: 250446 cumulative IPC: 3.993 (Simulation time: 00 hr 00 min 04 sec)
Simulation finished CPU 0 instructions: 1000001 cycles: 805822 cumulative IPC: 1.241 (Simulation time: 00 hr 00 min 15 sec)
Simulation complete CPU 0 instructions: 1000001 cycles: 805822 cumulative IPC: 1.241 (Simulation time: 00 hr 00 min 15 sec)

ChampSim completed all CPUs

=== Simulation ===
CPU 0 runs /scratch/cluster/hill/traces/spec2006/cactusADM_1039B.trace.xz
Region of Interest Statistics

CPU 0 cumulative IPC: 1.241 instructions: 1000001 cycles: 805822
CPU 0 Branch Prediction Accuracy: 96.56% MPKI: 0.04 Average ROB Occupancy at Mispredict: 204.1
Branch type MPKI
BRANCH_DIRECT_JUMP: 0
BRANCH_INDIRECT: 0
BRANCH_CONDITIONAL: 0.04
BRANCH_DIRECT_CALL: 0
BRANCH_INDIRECT_CALL: 0
BRANCH_RETURN: 0

LLC TOTAL        ACCESS:       6567 HIT:        852 MISS:       5715
LLC LOAD         ACCESS:       4685 HIT:          1 MISS:       4684
LLC RFO          ACCESS:        852 HIT:          0 MISS:        852
LLC PREFETCH     ACCESS:          0 HIT:          0 MISS:          0
LLC WRITE        ACCESS:        848 HIT:        848 MISS:          0
LLC TRANSLATION  ACCESS:        182 HIT:          3 MISS:        179
LLC PREFETCH REQUESTED:          0 ISSUED:          0 USEFUL:          0 USELESS:          0
LLC AVERAGE MISS LATENCY: 439.7 cycles
cpu0_DTLB TOTAL        ACCESS:     235653 HIT:     218783 MISS:      16870
cpu0_DTLB LOAD         ACCESS:     235653 HIT:     218783 MISS:      16870
cpu0_DTLB RFO          ACCESS:          0 HIT:          0 MISS:          0
cpu0_DTLB PREFETCH     ACCESS:          0 HIT:          0 MISS:          0
cpu0_DTLB WRITE        ACCESS:          0 HIT:          0 MISS:          0
cpu0_DTLB TRANSLATION  ACCESS:          0 HIT:          0 MISS:          0
cpu0_DTLB PREFETCH REQUESTED:          0 ISSUED:          0 USEFUL:          0 USELESS:          0
cpu0_DTLB AVERAGE MISS LATENCY: 17.45 cycles
cpu0_ITLB TOTAL        ACCESS:     151425 HIT:     151425 MISS:          0
cpu0_ITLB LOAD         ACCESS:     151425 HIT:     151425 MISS:          0
cpu0_ITLB RFO          ACCESS:          0 HIT:          0 MISS:          0
cpu0_ITLB PREFETCH     ACCESS:          0 HIT:          0 MISS:          0
cpu0_ITLB WRITE        ACCESS:          0 HIT:          0 MISS:          0
cpu0_ITLB TRANSLATION  ACCESS:          0 HIT:          0 MISS:          0
cpu0_ITLB PREFETCH REQUESTED:          0 ISSUED:          0 USEFUL:          0 USELESS:          0
cpu0_ITLB AVERAGE MISS LATENCY: -nan cycles
cpu0_L1D TOTAL        ACCESS:     360877 HIT:     343291 MISS:      17586
cpu0_L1D LOAD         ACCESS:     246241 HIT:     234312 MISS:      11929
cpu0_L1D RFO          ACCESS:          0 HIT:          0 MISS:          0
cpu0_L1D PREFETCH     ACCESS:          0 HIT:          0 MISS:          0
cpu0_L1D WRITE        ACCESS:     106106 HIT:     104891 MISS:       1215
cpu0_L1D TRANSLATION  ACCESS:       8530 HIT:       4088 MISS:       4442
cpu0_L1D PREFETCH REQUESTED:          0 ISSUED:          0 USEFUL:          0 USELESS:          0
cpu0_L1D AVERAGE MISS LATENCY: 156.3 cycles
cpu0_L1I TOTAL        ACCESS:     197125 HIT:     197125 MISS:          0
cpu0_L1I LOAD         ACCESS:     197125 HIT:     197125 MISS:          0
cpu0_L1I RFO          ACCESS:          0 HIT:          0 MISS:          0
cpu0_L1I PREFETCH     ACCESS:          0 HIT:          0 MISS:          0
cpu0_L1I WRITE        ACCESS:          0 HIT:          0 MISS:          0
cpu0_L1I TRANSLATION  ACCESS:          0 HIT:          0 MISS:          0
cpu0_L1I PREFETCH REQUESTED:          0 ISSUED:          0 USEFUL:          0 USELESS:          0
cpu0_L1I AVERAGE MISS LATENCY: -nan cycles
cpu0_L2C TOTAL        ACCESS:      16613 HIT:      10893 MISS:       5720
cpu0_L2C LOAD         ACCESS:      10261 HIT:       5576 MISS:       4685
cpu0_L2C RFO          ACCESS:        940 HIT:         88 MISS:        852
cpu0_L2C PREFETCH     ACCESS:          0 HIT:          0 MISS:          0
cpu0_L2C WRITE        ACCESS:        973 HIT:        972 MISS:          1
cpu0_L2C TRANSLATION  ACCESS:       4439 HIT:       4257 MISS:        182
cpu0_L2C PREFETCH REQUESTED:          0 ISSUED:          0 USEFUL:          0 USELESS:          0
cpu0_L2C AVERAGE MISS LATENCY: 460.3 cycles
cpu0_STLB TOTAL        ACCESS:      12445 HIT:       7923 MISS:       4522
cpu0_STLB LOAD         ACCESS:      12445 HIT:       7923 MISS:       4522
cpu0_STLB RFO          ACCESS:          0 HIT:          0 MISS:          0
cpu0_STLB PREFETCH     ACCESS:          0 HIT:          0 MISS:          0
cpu0_STLB WRITE        ACCESS:          0 HIT:          0 MISS:          0
cpu0_STLB TRANSLATION  ACCESS:          0 HIT:          0 MISS:          0
cpu0_STLB PREFETCH REQUESTED:          0 ISSUED:          0 USEFUL:          0 USELESS:          0
cpu0_STLB AVERAGE MISS LATENCY: 45.73 cycles

DRAM Statistics

Channel 0 RQ ROW_BUFFER_HIT:       1046
  ROW_BUFFER_MISS:       4669
 AVG DBUS CONGESTED CYCLE: 3.821
WQ ROW_BUFFER_HIT: Channel 0 
  ROW_BUFFER_MISS:          0
  FULL:          0
