WARNING: physical memory size is smaller than virtual memory size.

*** ChampSim Multicore Out-of-Order Simulator ***
Warmup Instructions: 1000000
Simulation Instructions: 1000000
Number of CPUs: 1
Page size: 4096

Off-chip DRAM Size: 4 GiB Channels: 1 Width: 64-bit Data Race: 800 MT/s
Warmup finished CPU 0 instructions: 1000003 cycles: 266398 cumulative IPC: 3.754 (Simulation time: 00 hr 00 min 06 sec)
Warmup complete CPU 0 instructions: 1000003 cycles: 266398 cumulative IPC: 3.754 (Simulation time: 00 hr 00 min 06 sec)
Simulation finished CPU 0 instructions: 1000003 cycles: 4017369 cumulative IPC: 0.2489 (Simulation time: 00 hr 00 min 35 sec)
Simulation complete CPU 0 instructions: 1000003 cycles: 4017369 cumulative IPC: 0.2489 (Simulation time: 00 hr 00 min 35 sec)

ChampSim completed all CPUs

=== Simulation ===
CPU 0 runs /scratch/cluster/hill/traces/spec2006/soplex_66B.trace.xz
Region of Interest Statistics

CPU 0 cumulative IPC: 0.2489 instructions: 1000003 cycles: 4017369
CPU 0 Branch Prediction Accuracy: 95.83% MPKI: 10.82 Average ROB Occupancy at Mispredict: 46.49
Branch type MPKI
BRANCH_DIRECT_JUMP: 0.004
BRANCH_INDIRECT: 0
BRANCH_CONDITIONAL: 10.8
BRANCH_DIRECT_CALL: 0.007
BRANCH_INDIRECT_CALL: 0.001
BRANCH_RETURN: 0.008

LLC TOTAL        ACCESS:      66072 HIT:      31742 MISS:      34330
LLC LOAD         ACCESS:      37422 HIT:       8650 MISS:      28772
LLC RFO          ACCESS:       6978 HIT:       1794 MISS:       5184
LLC PREFETCH     ACCESS:          0 HIT:          0 MISS:          0
LLC WRITE        ACCESS:      21092 HIT:      21092 MISS:          0
LLC TRANSLATION  ACCESS:        580 HIT:        206 MISS:        374
LLC PREFETCH REQUESTED:          0 ISSUED:          0 USEFUL:          0 USELESS:          0
LLC AVERAGE MISS LATENCY: 1099 cycles
cpu0_DTLB TOTAL        ACCESS:     225138 HIT:     214779 MISS:      10359
cpu0_DTLB LOAD         ACCESS:     225138 HIT:     214779 MISS:      10359
cpu0_DTLB RFO          ACCESS:          0 HIT:          0 MISS:          0
cpu0_DTLB PREFETCH     ACCESS:          0 HIT:          0 MISS:          0
cpu0_DTLB WRITE        ACCESS:          0 HIT:          0 MISS:          0
cpu0_DTLB TRANSLATION  ACCESS:          0 HIT:          0 MISS:          0
cpu0_DTLB PREFETCH REQUESTED:          0 ISSUED:          0 USEFUL:          0 USELESS:          0
cpu0_DTLB AVERAGE MISS LATENCY: 49.74 cycles
cpu0_ITLB TOTAL        ACCESS:         58 HIT:         44 MISS:         14
cpu0_ITLB LOAD         ACCESS:         58 HIT:         44 MISS:         14
cpu0_ITLB RFO          ACCESS:          0 HIT:          0 MISS:          0
cpu0_ITLB PREFETCH     ACCESS:          0 HIT:          0 MISS:          0
cpu0_ITLB WRITE        ACCESS:          0 HIT:          0 MISS:          0
cpu0_ITLB TRANSLATION  ACCESS:          0 HIT:          0 MISS:          0
cpu0_ITLB PREFETCH REQUESTED:          0 ISSUED:          0 USEFUL:          0 USELESS:          0
cpu0_ITLB AVERAGE MISS LATENCY: 255.6 cycles
cpu0_L1D TOTAL        ACCESS:     252443 HIT:      94874 MISS:     157569
cpu0_L1D LOAD         ACCESS:     186626 HIT:      56128 MISS:     130498
cpu0_L1D RFO          ACCESS:          0 HIT:          0 MISS:          0
cpu0_L1D PREFETCH     ACCESS:          0 HIT:          0 MISS:          0
cpu0_L1D WRITE        ACCESS:      64838 HIT:      38603 MISS:      26235
cpu0_L1D TRANSLATION  ACCESS:        979 HIT:        143 MISS:        836
cpu0_L1D PREFETCH REQUESTED:          0 ISSUED:          0 USEFUL:          0 USELESS:          0
cpu0_L1D AVERAGE MISS LATENCY: 243.2 cycles
cpu0_L1I TOTAL        ACCESS:         63 HIT:         17 MISS:         46
cpu0_L1I LOAD         ACCESS:         63 HIT:         17 MISS:         46
cpu0_L1I RFO          ACCESS:          0 HIT:          0 MISS:          0
cpu0_L1I PREFETCH     ACCESS:          0 HIT:          0 MISS:          0
cpu0_L1I WRITE        ACCESS:          0 HIT:          0 MISS:          0
cpu0_L1I TRANSLATION  ACCESS:          0 HIT:          0 MISS:          0
cpu0_L1I PREFETCH REQUESTED:          0 ISSUED:          0 USEFUL:          0 USELESS:          0
cpu0_L1I AVERAGE MISS LATENCY: 321.1 cycles
cpu0_L2C TOTAL        ACCESS:      81629 HIT:      36646 MISS:      44983
cpu0_L2C LOAD         ACCESS:      47301 HIT:       9879 MISS:      37422
cpu0_L2C RFO          ACCESS:       6979 HIT:          1 MISS:       6978
cpu0_L2C PREFETCH     ACCESS:          0 HIT:          0 MISS:          0
cpu0_L2C WRITE        ACCESS:      26514 HIT:      26511 MISS:          3
cpu0_L2C TRANSLATION  ACCESS:        835 HIT:        255 MISS:        580
cpu0_L2C PREFETCH REQUESTED:          0 ISSUED:          0 USEFUL:          0 USELESS:          0
cpu0_L2C AVERAGE MISS LATENCY: 859.7 cycles
cpu0_STLB TOTAL        ACCESS:       3495 HIT:       2526 MISS:        969
cpu0_STLB LOAD         ACCESS:       3495 HIT:       2526 MISS:        969
cpu0_STLB RFO          ACCESS:          0 HIT:          0 MISS:          0
cpu0_STLB PREFETCH     ACCESS:          0 HIT:          0 MISS:          0
cpu0_STLB WRITE        ACCESS:          0 HIT:          0 MISS:          0
cpu0_STLB TRANSLATION  ACCESS:          0 HIT:          0 MISS:          0
cpu0_STLB PREFETCH REQUESTED:          0 ISSUED:          0 USEFUL:          0 USELESS:          0
cpu0_STLB AVERAGE MISS LATENCY: 707.7 cycles

DRAM Statistics

Channel 0 RQ ROW_BUFFER_HIT:       8096
  ROW_BUFFER_MISS:      26233
 AVG DBUS CONGESTED CYCLE: 3.941
WQ ROW_BUFFER_HIT: Channel 0 
  ROW_BUFFER_MISS:        779
  FULL:      16286
