WARNING: physical memory size is smaller than virtual memory size.

*** ChampSim Multicore Out-of-Order Simulator ***
Warmup Instructions: 1000000
Simulation Instructions: 1000000
Number of CPUs: 1
Page size: 4096

Off-chip DRAM Size: 4 GiB Channels: 1 Width: 64-bit Data Race: 800 MT/s
Warmup finished CPU 0 instructions: 1000002 cycles: 250084 cumulative IPC: 3.999 (Simulation time: 00 hr 00 min 05 sec)
Warmup complete CPU 0 instructions: 1000002 cycles: 250084 cumulative IPC: 3.999 (Simulation time: 00 hr 00 min 05 sec)
Simulation finished CPU 0 instructions: 1000001 cycles: 1233910 cumulative IPC: 0.8104 (Simulation time: 00 hr 00 min 21 sec)
Simulation complete CPU 0 instructions: 1000001 cycles: 1233910 cumulative IPC: 0.8104 (Simulation time: 00 hr 00 min 21 sec)

ChampSim completed all CPUs

=== Simulation ===
CPU 0 runs /scratch/cluster/hill/traces/spec2006/astar_163B.trace.xz
Region of Interest Statistics

CPU 0 cumulative IPC: 0.8104 instructions: 1000001 cycles: 1233910
CPU 0 Branch Prediction Accuracy: 78.42% MPKI: 31.47 Average ROB Occupancy at Mispredict: 37.46
Branch type MPKI
BRANCH_DIRECT_JUMP: 0
BRANCH_INDIRECT: 0
BRANCH_CONDITIONAL: 31.5
BRANCH_DIRECT_CALL: 0
BRANCH_INDIRECT_CALL: 0
BRANCH_RETURN: 0

LLC TOTAL        ACCESS:       5245 HIT:       2033 MISS:       3212
LLC LOAD         ACCESS:       3300 HIT:        414 MISS:       2886
LLC RFO          ACCESS:        292 HIT:         23 MISS:        269
LLC PREFETCH     ACCESS:          0 HIT:          0 MISS:          0
LLC WRITE        ACCESS:       1527 HIT:       1527 MISS:          0
LLC TRANSLATION  ACCESS:        126 HIT:         69 MISS:         57
LLC PREFETCH REQUESTED:          0 ISSUED:          0 USEFUL:          0 USELESS:          0
LLC AVERAGE MISS LATENCY: 176 cycles
cpu0_DTLB TOTAL        ACCESS:     234856 HIT:     229493 MISS:       5363
cpu0_DTLB LOAD         ACCESS:     234856 HIT:     229493 MISS:       5363
cpu0_DTLB RFO          ACCESS:          0 HIT:          0 MISS:          0
cpu0_DTLB PREFETCH     ACCESS:          0 HIT:          0 MISS:          0
cpu0_DTLB WRITE        ACCESS:          0 HIT:          0 MISS:          0
cpu0_DTLB TRANSLATION  ACCESS:          0 HIT:          0 MISS:          0
cpu0_DTLB PREFETCH REQUESTED:          0 ISSUED:          0 USEFUL:          0 USELESS:          0
cpu0_DTLB AVERAGE MISS LATENCY: 34.77 cycles
cpu0_ITLB TOTAL        ACCESS:          0 HIT:          0 MISS:          0
cpu0_ITLB LOAD         ACCESS:          0 HIT:          0 MISS:          0
cpu0_ITLB RFO          ACCESS:          0 HIT:          0 MISS:          0
cpu0_ITLB PREFETCH     ACCESS:          0 HIT:          0 MISS:          0
cpu0_ITLB WRITE        ACCESS:          0 HIT:          0 MISS:          0
cpu0_ITLB TRANSLATION  ACCESS:          0 HIT:          0 MISS:          0
cpu0_ITLB PREFETCH REQUESTED:          0 ISSUED:          0 USEFUL:          0 USELESS:          0
cpu0_ITLB AVERAGE MISS LATENCY: -nan cycles
cpu0_L1D TOTAL        ACCESS:     289876 HIT:     273734 MISS:      16142
cpu0_L1D LOAD         ACCESS:     184220 HIT:     171130 MISS:      13090
cpu0_L1D RFO          ACCESS:          0 HIT:          0 MISS:          0
cpu0_L1D PREFETCH     ACCESS:          0 HIT:          0 MISS:          0
cpu0_L1D WRITE        ACCESS:     104849 HIT:     102332 MISS:       2517
cpu0_L1D TRANSLATION  ACCESS:        807 HIT:        272 MISS:        535
cpu0_L1D PREFETCH REQUESTED:          0 ISSUED:          0 USEFUL:          0 USELESS:          0
cpu0_L1D AVERAGE MISS LATENCY: 40.99 cycles
cpu0_L1I TOTAL        ACCESS:          0 HIT:          0 MISS:          0
cpu0_L1I LOAD         ACCESS:          0 HIT:          0 MISS:          0
cpu0_L1I RFO          ACCESS:          0 HIT:          0 MISS:          0
cpu0_L1I PREFETCH     ACCESS:          0 HIT:          0 MISS:          0
cpu0_L1I WRITE        ACCESS:          0 HIT:          0 MISS:          0
cpu0_L1I TRANSLATION  ACCESS:          0 HIT:          0 MISS:          0
cpu0_L1I PREFETCH REQUESTED:          0 ISSUED:          0 USEFUL:          0 USELESS:          0
cpu0_L1I AVERAGE MISS LATENCY: -nan cycles
cpu0_L2C TOTAL        ACCESS:      11877 HIT:       8158 MISS:       3719
cpu0_L2C LOAD         ACCESS:       7731 HIT:       4431 MISS:       3300
cpu0_L2C RFO          ACCESS:        864 HIT:        572 MISS:        292
cpu0_L2C PREFETCH     ACCESS:          0 HIT:          0 MISS:          0
cpu0_L2C WRITE        ACCESS:       2756 HIT:       2755 MISS:          1
cpu0_L2C TRANSLATION  ACCESS:        526 HIT:        400 MISS:        126
cpu0_L2C PREFETCH REQUESTED:          0 ISSUED:          0 USEFUL:          0 USELESS:          0
cpu0_L2C AVERAGE MISS LATENCY: 172.9 cycles
cpu0_STLB TOTAL        ACCESS:       4935 HIT:       4128 MISS:        807
cpu0_STLB LOAD         ACCESS:       4935 HIT:       4128 MISS:        807
cpu0_STLB RFO          ACCESS:          0 HIT:          0 MISS:          0
cpu0_STLB PREFETCH     ACCESS:          0 HIT:          0 MISS:          0
cpu0_STLB WRITE        ACCESS:          0 HIT:          0 MISS:          0
cpu0_STLB TRANSLATION  ACCESS:          0 HIT:          0 MISS:          0
cpu0_STLB PREFETCH REQUESTED:          0 ISSUED:          0 USEFUL:          0 USELESS:          0
cpu0_STLB AVERAGE MISS LATENCY: 190.6 cycles

DRAM Statistics

Channel 0 RQ ROW_BUFFER_HIT:       1156
  ROW_BUFFER_MISS:       2056
 AVG DBUS CONGESTED CYCLE: 3.505
WQ ROW_BUFFER_HIT: Channel 0 
  ROW_BUFFER_MISS:          0
  FULL:          0
