WARNING: physical memory size is smaller than virtual memory size.

*** ChampSim Multicore Out-of-Order Simulator ***
Warmup Instructions: 1000000
Simulation Instructions: 1000000
Number of CPUs: 1
Page size: 4096

Off-chip DRAM Size: 4 GiB Channels: 1 Width: 64-bit Data Race: 800 MT/s
Warmup finished CPU 0 instructions: 1000003 cycles: 250076 cumulative IPC: 3.999 (Simulation time: 00 hr 00 min 05 sec)
Warmup complete CPU 0 instructions: 1000003 cycles: 250076 cumulative IPC: 3.999 (Simulation time: 00 hr 00 min 05 sec)
Simulation finished CPU 0 instructions: 1000002 cycles: 1901480 cumulative IPC: 0.5259 (Simulation time: 00 hr 00 min 25 sec)
Simulation complete CPU 0 instructions: 1000002 cycles: 1901480 cumulative IPC: 0.5259 (Simulation time: 00 hr 00 min 25 sec)

ChampSim completed all CPUs

=== Simulation ===
CPU 0 runs /scratch/cluster/hill/traces/spec2006/omnetpp_17B.trace.xz
Region of Interest Statistics

CPU 0 cumulative IPC: 0.5259 instructions: 1000002 cycles: 1901480
CPU 0 Branch Prediction Accuracy: 97.36% MPKI: 8.981 Average ROB Occupancy at Mispredict: 33.37
Branch type MPKI
BRANCH_DIRECT_JUMP: 0
BRANCH_INDIRECT: 0.036
BRANCH_CONDITIONAL: 8.91
BRANCH_DIRECT_CALL: 0.005
BRANCH_INDIRECT_CALL: 0.003
BRANCH_RETURN: 0.025

LLC TOTAL        ACCESS:      34138 HIT:       8395 MISS:      25743
LLC LOAD         ACCESS:      30587 HIT:       8037 MISS:      22550
LLC RFO          ACCESS:         26 HIT:          1 MISS:         25
LLC PREFETCH     ACCESS:          0 HIT:          0 MISS:          0
LLC WRITE        ACCESS:        234 HIT:        234 MISS:          0
LLC TRANSLATION  ACCESS:       3291 HIT:        123 MISS:       3168
LLC PREFETCH REQUESTED:          0 ISSUED:          0 USEFUL:          0 USELESS:          0
LLC AVERAGE MISS LATENCY: 880.3 cycles
cpu0_DTLB TOTAL        ACCESS:     112696 HIT:      87249 MISS:      25447
cpu0_DTLB LOAD         ACCESS:     112696 HIT:      87249 MISS:      25447
cpu0_DTLB RFO          ACCESS:          0 HIT:          0 MISS:          0
cpu0_DTLB PREFETCH     ACCESS:          0 HIT:          0 MISS:          0
cpu0_DTLB WRITE        ACCESS:          0 HIT:          0 MISS:          0
cpu0_DTLB TRANSLATION  ACCESS:          0 HIT:          0 MISS:          0
cpu0_DTLB PREFETCH REQUESTED:          0 ISSUED:          0 USEFUL:          0 USELESS:          0
cpu0_DTLB AVERAGE MISS LATENCY: 243.4 cycles
cpu0_ITLB TOTAL        ACCESS:       4625 HIT:       4620 MISS:          5
cpu0_ITLB LOAD         ACCESS:       4625 HIT:       4620 MISS:          5
cpu0_ITLB RFO          ACCESS:          0 HIT:          0 MISS:          0
cpu0_ITLB PREFETCH     ACCESS:          0 HIT:          0 MISS:          0
cpu0_ITLB WRITE        ACCESS:          0 HIT:          0 MISS:          0
cpu0_ITLB TRANSLATION  ACCESS:          0 HIT:          0 MISS:          0
cpu0_ITLB PREFETCH REQUESTED:          0 ISSUED:          0 USEFUL:          0 USELESS:          0
cpu0_ITLB AVERAGE MISS LATENCY: 60.8 cycles
cpu0_L1D TOTAL        ACCESS:     140491 HIT:      96819 MISS:      43672
cpu0_L1D LOAD         ACCESS:      96736 HIT:      56892 MISS:      39844
cpu0_L1D RFO          ACCESS:          0 HIT:          0 MISS:          0
cpu0_L1D PREFETCH     ACCESS:          0 HIT:          0 MISS:          0
cpu0_L1D WRITE        ACCESS:      24837 HIT:      24742 MISS:         95
cpu0_L1D TRANSLATION  ACCESS:      18918 HIT:      15185 MISS:       3733
cpu0_L1D PREFETCH REQUESTED:          0 ISSUED:          0 USEFUL:          0 USELESS:          0
cpu0_L1D AVERAGE MISS LATENCY: 523.9 cycles
cpu0_L1I TOTAL        ACCESS:       5051 HIT:       5048 MISS:          3
cpu0_L1I LOAD         ACCESS:       5051 HIT:       5048 MISS:          3
cpu0_L1I RFO          ACCESS:          0 HIT:          0 MISS:          0
cpu0_L1I PREFETCH     ACCESS:          0 HIT:          0 MISS:          0
cpu0_L1I WRITE        ACCESS:          0 HIT:          0 MISS:          0
cpu0_L1I TRANSLATION  ACCESS:          0 HIT:          0 MISS:          0
cpu0_L1I PREFETCH REQUESTED:          0 ISSUED:          0 USEFUL:          0 USELESS:          0
cpu0_L1I AVERAGE MISS LATENCY: 126 cycles
cpu0_L2C TOTAL        ACCESS:      34327 HIT:        422 MISS:      33905
cpu0_L2C LOAD         ACCESS:      30598 HIT:         10 MISS:      30588
cpu0_L2C RFO          ACCESS:         32 HIT:          6 MISS:         26
cpu0_L2C PREFETCH     ACCESS:          0 HIT:          0 MISS:          0
cpu0_L2C WRITE        ACCESS:        226 HIT:        226 MISS:          0
cpu0_L2C TRANSLATION  ACCESS:       3471 HIT:        180 MISS:       3291
cpu0_L2C PREFETCH REQUESTED:          0 ISSUED:          0 USEFUL:          0 USELESS:          0
cpu0_L2C AVERAGE MISS LATENCY: 689.1 cycles
cpu0_STLB TOTAL        ACCESS:      18823 HIT:         72 MISS:      18751
cpu0_STLB LOAD         ACCESS:      18823 HIT:         72 MISS:      18751
cpu0_STLB RFO          ACCESS:          0 HIT:          0 MISS:          0
cpu0_STLB PREFETCH     ACCESS:          0 HIT:          0 MISS:          0
cpu0_STLB WRITE        ACCESS:          0 HIT:          0 MISS:          0
cpu0_STLB TRANSLATION  ACCESS:          0 HIT:          0 MISS:          0
cpu0_STLB PREFETCH REQUESTED:          0 ISSUED:          0 USEFUL:          0 USELESS:          0
cpu0_STLB AVERAGE MISS LATENCY: 335.9 cycles

DRAM Statistics

Channel 0 RQ ROW_BUFFER_HIT:      10273
  ROW_BUFFER_MISS:      15456
 AVG DBUS CONGESTED CYCLE: 3.844
WQ ROW_BUFFER_HIT: Channel 0 
  ROW_BUFFER_MISS:          5
  FULL:         74
