WARNING: physical memory size is smaller than virtual memory size.

*** ChampSim Multicore Out-of-Order Simulator ***
Warmup Instructions: 1000000
Simulation Instructions: 1000000
Number of CPUs: 1
Page size: 4096

Off-chip DRAM Size: 4 GiB Channels: 1 Width: 64-bit Data Race: 800 MT/s
Warmup finished CPU 0 instructions: 1000001 cycles: 250096 cumulative IPC: 3.998 (Simulation time: 00 hr 00 min 05 sec)
Warmup complete CPU 0 instructions: 1000001 cycles: 250096 cumulative IPC: 3.998 (Simulation time: 00 hr 00 min 05 sec)
Simulation finished CPU 0 instructions: 1000003 cycles: 1739930 cumulative IPC: 0.5747 (Simulation time: 00 hr 00 min 20 sec)
Simulation complete CPU 0 instructions: 1000003 cycles: 1739930 cumulative IPC: 0.5747 (Simulation time: 00 hr 00 min 20 sec)

ChampSim completed all CPUs

=== Simulation ===
CPU 0 runs /scratch/cluster/hill/traces/spec2006/milc_360B.trace.xz
Region of Interest Statistics

CPU 0 cumulative IPC: 0.5747 instructions: 1000003 cycles: 1739930
CPU 0 Branch Prediction Accuracy: 90.91% MPKI: 3.448 Average ROB Occupancy at Mispredict: 277.2
Branch type MPKI
BRANCH_DIRECT_JUMP: 0
BRANCH_INDIRECT: 0
BRANCH_CONDITIONAL: 3.45
BRANCH_DIRECT_CALL: 0
BRANCH_INDIRECT_CALL: 0
BRANCH_RETURN: 0

LLC TOTAL        ACCESS:      22424 HIT:       6897 MISS:      15527
LLC LOAD         ACCESS:      15519 HIT:          0 MISS:      15519
LLC RFO          ACCESS:          0 HIT:          0 MISS:          0
LLC PREFETCH     ACCESS:          0 HIT:          0 MISS:          0
LLC WRITE        ACCESS:       6897 HIT:       6897 MISS:          0
LLC TRANSLATION  ACCESS:          8 HIT:          0 MISS:          8
LLC PREFETCH REQUESTED:          0 ISSUED:          0 USEFUL:          0 USELESS:          0
LLC AVERAGE MISS LATENCY: 439.3 cycles
cpu0_DTLB TOTAL        ACCESS:     234802 HIT:     225313 MISS:       9489
cpu0_DTLB LOAD         ACCESS:     234802 HIT:     225313 MISS:       9489
cpu0_DTLB RFO          ACCESS:          0 HIT:          0 MISS:          0
cpu0_DTLB PREFETCH     ACCESS:          0 HIT:          0 MISS:          0
cpu0_DTLB WRITE        ACCESS:          0 HIT:          0 MISS:          0
cpu0_DTLB TRANSLATION  ACCESS:          0 HIT:          0 MISS:          0
cpu0_DTLB PREFETCH REQUESTED:          0 ISSUED:          0 USEFUL:          0 USELESS:          0
cpu0_DTLB AVERAGE MISS LATENCY: 29.67 cycles
cpu0_ITLB TOTAL        ACCESS:          0 HIT:          0 MISS:          0
cpu0_ITLB LOAD         ACCESS:          0 HIT:          0 MISS:          0
cpu0_ITLB RFO          ACCESS:          0 HIT:          0 MISS:          0
cpu0_ITLB PREFETCH     ACCESS:          0 HIT:          0 MISS:          0
cpu0_ITLB WRITE        ACCESS:          0 HIT:          0 MISS:          0
cpu0_ITLB TRANSLATION  ACCESS:          0 HIT:          0 MISS:          0
cpu0_ITLB PREFETCH REQUESTED:          0 ISSUED:          0 USEFUL:          0 USELESS:          0
cpu0_ITLB AVERAGE MISS LATENCY: -nan cycles
cpu0_L1D TOTAL        ACCESS:     300924 HIT:     259179 MISS:      41745
cpu0_L1D LOAD         ACCESS:      64635 HIT:      25385 MISS:      39250
cpu0_L1D RFO          ACCESS:          0 HIT:          0 MISS:          0
cpu0_L1D PREFETCH     ACCESS:          0 HIT:          0 MISS:          0
cpu0_L1D WRITE        ACCESS:     234481 HIT:     232074 MISS:       2407
cpu0_L1D TRANSLATION  ACCESS:       1808 HIT:       1720 MISS:         88
cpu0_L1D PREFETCH REQUESTED:          0 ISSUED:          0 USEFUL:          0 USELESS:          0
cpu0_L1D AVERAGE MISS LATENCY: 138.4 cycles
cpu0_L1I TOTAL        ACCESS:          0 HIT:          0 MISS:          0
cpu0_L1I LOAD         ACCESS:          0 HIT:          0 MISS:          0
cpu0_L1I RFO          ACCESS:          0 HIT:          0 MISS:          0
cpu0_L1I PREFETCH     ACCESS:          0 HIT:          0 MISS:          0
cpu0_L1I WRITE        ACCESS:          0 HIT:          0 MISS:          0
cpu0_L1I TRANSLATION  ACCESS:          0 HIT:          0 MISS:          0
cpu0_L1I PREFETCH REQUESTED:          0 ISSUED:          0 USEFUL:          0 USELESS:          0
cpu0_L1I AVERAGE MISS LATENCY: -nan cycles
cpu0_L2C TOTAL        ACCESS:      23415 HIT:       7888 MISS:      15527
cpu0_L2C LOAD         ACCESS:      15519 HIT:          0 MISS:      15519
cpu0_L2C RFO          ACCESS:        455 HIT:        455 MISS:          0
cpu0_L2C PREFETCH     ACCESS:          0 HIT:          0 MISS:          0
cpu0_L2C WRITE        ACCESS:       7353 HIT:       7353 MISS:          0
cpu0_L2C TRANSLATION  ACCESS:         88 HIT:         80 MISS:          8
cpu0_L2C PREFETCH REQUESTED:          0 ISSUED:          0 USEFUL:          0 USELESS:          0
cpu0_L2C AVERAGE MISS LATENCY: 460.3 cycles
cpu0_STLB TOTAL        ACCESS:       1804 HIT:          0 MISS:       1804
cpu0_STLB LOAD         ACCESS:       1804 HIT:          0 MISS:       1804
cpu0_STLB RFO          ACCESS:          0 HIT:          0 MISS:          0
cpu0_STLB PREFETCH     ACCESS:          0 HIT:          0 MISS:          0
cpu0_STLB WRITE        ACCESS:          0 HIT:          0 MISS:          0
cpu0_STLB TRANSLATION  ACCESS:          0 HIT:          0 MISS:          0
cpu0_STLB PREFETCH REQUESTED:          0 ISSUED:          0 USEFUL:          0 USELESS:          0
cpu0_STLB AVERAGE MISS LATENCY: 209.9 cycles

DRAM Statistics

Channel 0 RQ ROW_BUFFER_HIT:      10792
  ROW_BUFFER_MISS:       4732
 AVG DBUS CONGESTED CYCLE: 3.765
WQ ROW_BUFFER_HIT: Channel 0 
  ROW_BUFFER_MISS:       3401
  FULL:       3446
