WARNING: physical memory size is smaller than virtual memory size.

*** ChampSim Multicore Out-of-Order Simulator ***
Warmup Instructions: 1000000
Simulation Instructions: 1000000
Number of CPUs: 1
Page size: 4096

Off-chip DRAM Size: 4 GiB Channels: 1 Width: 64-bit Data Race: 800 MT/s
Warmup finished CPU 0 instructions: 1000001 cycles: 259535 cumulative IPC: 3.853 (Simulation time: 00 hr 00 min 08 sec)
Warmup complete CPU 0 instructions: 1000001 cycles: 259535 cumulative IPC: 3.853 (Simulation time: 00 hr 00 min 08 sec)
Simulation finished CPU 0 instructions: 1000003 cycles: 1729591 cumulative IPC: 0.5782 (Simulation time: 00 hr 00 min 35 sec)
Simulation complete CPU 0 instructions: 1000003 cycles: 1729591 cumulative IPC: 0.5782 (Simulation time: 00 hr 00 min 35 sec)

ChampSim completed all CPUs

=== Simulation ===
CPU 0 runs /scratch/cluster/hill/traces/spec2006/leslie3d_1186B.trace.xz
Region of Interest Statistics

CPU 0 cumulative IPC: 0.5782 instructions: 1000003 cycles: 1729591
CPU 0 Branch Prediction Accuracy: 95.63% MPKI: 1.591 Average ROB Occupancy at Mispredict: 300.3
Branch type MPKI
BRANCH_DIRECT_JUMP: 0
BRANCH_INDIRECT: 0
BRANCH_CONDITIONAL: 1.59
BRANCH_DIRECT_CALL: 0
BRANCH_INDIRECT_CALL: 0
BRANCH_RETURN: 0

LLC TOTAL        ACCESS:      23606 HIT:       6342 MISS:      17264
LLC LOAD         ACCESS:      16994 HIT:          0 MISS:      16994
LLC RFO          ACCESS:       3150 HIT:       2880 MISS:        270
LLC PREFETCH     ACCESS:          0 HIT:          0 MISS:          0
LLC WRITE        ACCESS:       3405 HIT:       3405 MISS:          0
LLC TRANSLATION  ACCESS:         57 HIT:         57 MISS:          0
LLC PREFETCH REQUESTED:          0 ISSUED:          0 USEFUL:          0 USELESS:          0
LLC AVERAGE MISS LATENCY: 890.3 cycles
cpu0_DTLB TOTAL        ACCESS:     295336 HIT:     293320 MISS:       2016
cpu0_DTLB LOAD         ACCESS:     295336 HIT:     293320 MISS:       2016
cpu0_DTLB RFO          ACCESS:          0 HIT:          0 MISS:          0
cpu0_DTLB PREFETCH     ACCESS:          0 HIT:          0 MISS:          0
cpu0_DTLB WRITE        ACCESS:          0 HIT:          0 MISS:          0
cpu0_DTLB TRANSLATION  ACCESS:          0 HIT:          0 MISS:          0
cpu0_DTLB PREFETCH REQUESTED:          0 ISSUED:          0 USEFUL:          0 USELESS:          0
cpu0_DTLB AVERAGE MISS LATENCY: 22.06 cycles
cpu0_ITLB TOTAL        ACCESS:       7846 HIT:       7846 MISS:          0
cpu0_ITLB LOAD         ACCESS:       7846 HIT:       7846 MISS:          0
cpu0_ITLB RFO          ACCESS:          0 HIT:          0 MISS:          0
cpu0_ITLB PREFETCH     ACCESS:          0 HIT:          0 MISS:          0
cpu0_ITLB WRITE        ACCESS:          0 HIT:          0 MISS:          0
cpu0_ITLB TRANSLATION  ACCESS:          0 HIT:          0 MISS:          0
cpu0_ITLB PREFETCH REQUESTED:          0 ISSUED:          0 USEFUL:          0 USELESS:          0
cpu0_ITLB AVERAGE MISS LATENCY: -nan cycles
cpu0_L1D TOTAL        ACCESS:     400969 HIT:     293071 MISS:     107898
cpu0_L1D LOAD         ACCESS:     269016 HIT:     189208 MISS:      79808
cpu0_L1D RFO          ACCESS:          0 HIT:          0 MISS:          0
cpu0_L1D PREFETCH     ACCESS:          0 HIT:          0 MISS:          0
cpu0_L1D WRITE        ACCESS:     131687 HIT:     103790 MISS:      27897
cpu0_L1D TRANSLATION  ACCESS:        266 HIT:         73 MISS:        193
cpu0_L1D PREFETCH REQUESTED:          0 ISSUED:          0 USEFUL:          0 USELESS:          0
cpu0_L1D AVERAGE MISS LATENCY: 90.95 cycles
cpu0_L1I TOTAL        ACCESS:      11400 HIT:      11400 MISS:          0
cpu0_L1I LOAD         ACCESS:      11400 HIT:      11400 MISS:          0
cpu0_L1I RFO          ACCESS:          0 HIT:          0 MISS:          0
cpu0_L1I PREFETCH     ACCESS:          0 HIT:          0 MISS:          0
cpu0_L1I WRITE        ACCESS:          0 HIT:          0 MISS:          0
cpu0_L1I TRANSLATION  ACCESS:          0 HIT:          0 MISS:          0
cpu0_L1I PREFETCH REQUESTED:          0 ISSUED:          0 USEFUL:          0 USELESS:          0
cpu0_L1I AVERAGE MISS LATENCY: -nan cycles
cpu0_L2C TOTAL        ACCESS:      50924 HIT:      30720 MISS:      20204
cpu0_L2C LOAD         ACCESS:      30326 HIT:      13332 MISS:      16994
cpu0_L2C RFO          ACCESS:       8750 HIT:       5600 MISS:       3150
cpu0_L2C PREFETCH     ACCESS:          0 HIT:          0 MISS:          0
cpu0_L2C WRITE        ACCESS:      11658 HIT:      11655 MISS:          3
cpu0_L2C TRANSLATION  ACCESS:        190 HIT:        133 MISS:         57
cpu0_L2C PREFETCH REQUESTED:          0 ISSUED:          0 USEFUL:          0 USELESS:          0
cpu0_L2C AVERAGE MISS LATENCY: 781.6 cycles
cpu0_STLB TOTAL        ACCESS:        636 HIT:        370 MISS:        266
cpu0_STLB LOAD         ACCESS:        636 HIT:        370 MISS:        266
cpu0_STLB RFO          ACCESS:          0 HIT:          0 MISS:          0
cpu0_STLB PREFETCH     ACCESS:          0 HIT:          0 MISS:          0
cpu0_STLB WRITE        ACCESS:          0 HIT:          0 MISS:          0
cpu0_STLB TRANSLATION  ACCESS:          0 HIT:          0 MISS:          0
cpu0_STLB PREFETCH REQUESTED:          0 ISSUED:          0 USEFUL:          0 USELESS:          0
cpu0_STLB AVERAGE MISS LATENCY: 290.7 cycles

DRAM Statistics

Channel 0 RQ ROW_BUFFER_HIT:      12067
  ROW_BUFFER_MISS:       5193
 AVG DBUS CONGESTED CYCLE: 3.91
WQ ROW_BUFFER_HIT: Channel 0 
  ROW_BUFFER_MISS:        549
  FULL:       4044
