WARNING: physical memory size is smaller than virtual memory size.

*** ChampSim Multicore Out-of-Order Simulator ***
Warmup Instructions: 5000000
Simulation Instructions: 5000000
Number of CPUs: 1
Page size: 4096

Off-chip DRAM Size: 4 GiB Channels: 1 Width: 64-bit Data Race: 800 MT/s
Warmup finished CPU 0 instructions: 5000002 cycles: 1268380 cumulative IPC: 3.942 (Simulation time: 00 hr 00 min 12 sec)
Warmup complete CPU 0 instructions: 5000002 cycles: 1268380 cumulative IPC: 3.942 (Simulation time: 00 hr 00 min 12 sec)
Heartbeat CPU 0 instructions: 10000003 cycles: 3685945 heartbeat IPC: 2.713 cumulative IPC: 2.068 (Simulation time: 00 hr 00 min 30 sec)
Simulation finished CPU 0 instructions: 5000001 cycles: 2417566 cumulative IPC: 2.068 (Simulation time: 00 hr 00 min 30 sec)
Simulation complete CPU 0 instructions: 5000001 cycles: 2417566 cumulative IPC: 2.068 (Simulation time: 00 hr 00 min 30 sec)

ChampSim completed all CPUs

=== Simulation ===
CPU 0 runs /scratch/cluster/hill/traces/spec2006/zeusmp_600B.trace.xz
Region of Interest Statistics

CPU 0 cumulative IPC: 2.068 instructions: 5000001 cycles: 2417566
CPU 0 Branch Prediction Accuracy: 97.99% MPKI: 0.762 Average ROB Occupancy at Mispredict: 316.8
Branch type MPKI
BRANCH_DIRECT_JUMP: 0
BRANCH_INDIRECT: 0
BRANCH_CONDITIONAL: 0.762
BRANCH_DIRECT_CALL: 0
BRANCH_INDIRECT_CALL: 0
BRANCH_RETURN: 0

LLC TOTAL        ACCESS:      20910 HIT:       5202 MISS:      15708
LLC LOAD         ACCESS:      14914 HIT:       2189 MISS:      12725
LLC RFO          ACCESS:       2982 HIT:          0 MISS:       2982
LLC PREFETCH     ACCESS:          0 HIT:          0 MISS:          0
LLC WRITE        ACCESS:       2991 HIT:       2990 MISS:          1
LLC TRANSLATION  ACCESS:         23 HIT:         23 MISS:          0
LLC PREFETCH REQUESTED:          0 ISSUED:          0 USEFUL:          0 USELESS:          0
LLC AVERAGE MISS LATENCY: 432.7 cycles
cpu0_DTLB TOTAL        ACCESS:     944332 HIT:     799562 MISS:     144770
cpu0_DTLB LOAD         ACCESS:     944332 HIT:     799562 MISS:     144770
cpu0_DTLB RFO          ACCESS:          0 HIT:          0 MISS:          0
cpu0_DTLB PREFETCH     ACCESS:          0 HIT:          0 MISS:          0
cpu0_DTLB WRITE        ACCESS:          0 HIT:          0 MISS:          0
cpu0_DTLB TRANSLATION  ACCESS:          0 HIT:          0 MISS:          0
cpu0_DTLB PREFETCH REQUESTED:          0 ISSUED:          0 USEFUL:          0 USELESS:          0
cpu0_DTLB AVERAGE MISS LATENCY: 7.545 cycles
cpu0_ITLB TOTAL        ACCESS:      44720 HIT:      44720 MISS:          0
cpu0_ITLB LOAD         ACCESS:      44720 HIT:      44720 MISS:          0
cpu0_ITLB RFO          ACCESS:          0 HIT:          0 MISS:          0
cpu0_ITLB PREFETCH     ACCESS:          0 HIT:          0 MISS:          0
cpu0_ITLB WRITE        ACCESS:          0 HIT:          0 MISS:          0
cpu0_ITLB TRANSLATION  ACCESS:          0 HIT:          0 MISS:          0
cpu0_ITLB PREFETCH REQUESTED:          0 ISSUED:          0 USEFUL:          0 USELESS:          0
cpu0_ITLB AVERAGE MISS LATENCY: -nan cycles
cpu0_L1D TOTAL        ACCESS:    1140632 HIT:    1109152 MISS:      31480
cpu0_L1D LOAD         ACCESS:     767458 HIT:     742955 MISS:      24503
cpu0_L1D RFO          ACCESS:          0 HIT:          0 MISS:          0
cpu0_L1D PREFETCH     ACCESS:          0 HIT:          0 MISS:          0
cpu0_L1D WRITE        ACCESS:     372926 HIT:     366197 MISS:       6729
cpu0_L1D TRANSLATION  ACCESS:        248 HIT:          0 MISS:        248
cpu0_L1D PREFETCH REQUESTED:          0 ISSUED:          0 USEFUL:          0 USELESS:          0
cpu0_L1D AVERAGE MISS LATENCY: 237.5 cycles
cpu0_L1I TOTAL        ACCESS:      59952 HIT:      59952 MISS:          0
cpu0_L1I LOAD         ACCESS:      59952 HIT:      59952 MISS:          0
cpu0_L1I RFO          ACCESS:          0 HIT:          0 MISS:          0
cpu0_L1I PREFETCH     ACCESS:          0 HIT:          0 MISS:          0
cpu0_L1I WRITE        ACCESS:          0 HIT:          0 MISS:          0
cpu0_L1I TRANSLATION  ACCESS:          0 HIT:          0 MISS:          0
cpu0_L1I PREFETCH REQUESTED:          0 ISSUED:          0 USEFUL:          0 USELESS:          0
cpu0_L1I AVERAGE MISS LATENCY: -nan cycles
cpu0_L2C TOTAL        ACCESS:      37441 HIT:      19512 MISS:      17929
cpu0_L2C LOAD         ACCESS:      22530 HIT:       7616 MISS:      14914
cpu0_L2C RFO          ACCESS:       6727 HIT:       3745 MISS:       2982
cpu0_L2C PREFETCH     ACCESS:          0 HIT:          0 MISS:          0
cpu0_L2C WRITE        ACCESS:       7936 HIT:       7926 MISS:         10
cpu0_L2C TRANSLATION  ACCESS:        248 HIT:        225 MISS:         23
cpu0_L2C PREFETCH REQUESTED:          0 ISSUED:          0 USEFUL:          0 USELESS:          0
cpu0_L2C AVERAGE MISS LATENCY: 400 cycles
cpu0_STLB TOTAL        ACCESS:     132716 HIT:     132468 MISS:        248
cpu0_STLB LOAD         ACCESS:     132716 HIT:     132468 MISS:        248
cpu0_STLB RFO          ACCESS:          0 HIT:          0 MISS:          0
cpu0_STLB PREFETCH     ACCESS:          0 HIT:          0 MISS:          0
cpu0_STLB WRITE        ACCESS:          0 HIT:          0 MISS:          0
cpu0_STLB TRANSLATION  ACCESS:          0 HIT:          0 MISS:          0
cpu0_STLB PREFETCH REQUESTED:          0 ISSUED:          0 USEFUL:          0 USELESS:          0
cpu0_STLB AVERAGE MISS LATENCY: 239.7 cycles

DRAM Statistics

Channel 0 RQ ROW_BUFFER_HIT:         21
  ROW_BUFFER_MISS:      15686
 AVG DBUS CONGESTED CYCLE: 3.919
WQ ROW_BUFFER_HIT: Channel 0 
  ROW_BUFFER_MISS:          0
  FULL:        181
