WARNING: physical memory size is smaller than virtual memory size.

*** ChampSim Multicore Out-of-Order Simulator ***
Warmup Instructions: 5000000
Simulation Instructions: 5000000
Number of CPUs: 1
Page size: 4096

Off-chip DRAM Size: 4 GiB Channels: 1 Width: 64-bit Data Race: 800 MT/s
Warmup finished CPU 0 instructions: 5000000 cycles: 1250620 cumulative IPC: 3.998 (Simulation time: 00 hr 00 min 13 sec)
Warmup complete CPU 0 instructions: 5000000 cycles: 1250620 cumulative IPC: 3.998 (Simulation time: 00 hr 00 min 13 sec)
Heartbeat CPU 0 instructions: 10000001 cycles: 2756789 heartbeat IPC: 3.627 cumulative IPC: 3.32 (Simulation time: 00 hr 00 min 30 sec)
Simulation finished CPU 0 instructions: 5000001 cycles: 1506170 cumulative IPC: 3.32 (Simulation time: 00 hr 00 min 30 sec)
Simulation complete CPU 0 instructions: 5000001 cycles: 1506170 cumulative IPC: 3.32 (Simulation time: 00 hr 00 min 30 sec)

ChampSim completed all CPUs

=== Simulation ===
CPU 0 runs /scratch/cluster/hill/traces/spec2006/hmmer_7B.trace.xz
Region of Interest Statistics

CPU 0 cumulative IPC: 3.32 instructions: 5000001 cycles: 1506170
CPU 0 Branch Prediction Accuracy: 99.49% MPKI: 0.189 Average ROB Occupancy at Mispredict: 273.6
Branch type MPKI
BRANCH_DIRECT_JUMP: 0
BRANCH_INDIRECT: 0
BRANCH_CONDITIONAL: 0.189
BRANCH_DIRECT_CALL: 0
BRANCH_INDIRECT_CALL: 0
BRANCH_RETURN: 0

LLC TOTAL        ACCESS:      30605 HIT:      15218 MISS:      15387
LLC LOAD         ACCESS:        992 HIT:        890 MISS:        102
LLC RFO          ACCESS:      15361 HIT:         76 MISS:      15285
LLC PREFETCH     ACCESS:          0 HIT:          0 MISS:          0
LLC WRITE        ACCESS:      14251 HIT:      14251 MISS:          0
LLC TRANSLATION  ACCESS:          1 HIT:          1 MISS:          0
LLC PREFETCH REQUESTED:          0 ISSUED:          0 USEFUL:          0 USELESS:          0
LLC AVERAGE MISS LATENCY: 588 cycles
cpu0_DTLB TOTAL        ACCESS:    1209122 HIT:    1206756 MISS:       2366
cpu0_DTLB LOAD         ACCESS:    1209122 HIT:    1206756 MISS:       2366
cpu0_DTLB RFO          ACCESS:          0 HIT:          0 MISS:          0
cpu0_DTLB PREFETCH     ACCESS:          0 HIT:          0 MISS:          0
cpu0_DTLB WRITE        ACCESS:          0 HIT:          0 MISS:          0
cpu0_DTLB TRANSLATION  ACCESS:          0 HIT:          0 MISS:          0
cpu0_DTLB PREFETCH REQUESTED:          0 ISSUED:          0 USEFUL:          0 USELESS:          0
cpu0_DTLB AVERAGE MISS LATENCY: 20.13 cycles
cpu0_ITLB TOTAL        ACCESS:          0 HIT:          0 MISS:          0
cpu0_ITLB LOAD         ACCESS:          0 HIT:          0 MISS:          0
cpu0_ITLB RFO          ACCESS:          0 HIT:          0 MISS:          0
cpu0_ITLB PREFETCH     ACCESS:          0 HIT:          0 MISS:          0
cpu0_ITLB WRITE        ACCESS:          0 HIT:          0 MISS:          0
cpu0_ITLB TRANSLATION  ACCESS:          0 HIT:          0 MISS:          0
cpu0_ITLB PREFETCH REQUESTED:          0 ISSUED:          0 USEFUL:          0 USELESS:          0
cpu0_ITLB AVERAGE MISS LATENCY: -nan cycles
cpu0_L1D TOTAL        ACCESS:    1724161 HIT:    1020624 MISS:     703537
cpu0_L1D LOAD         ACCESS:     949709 HIT:     934563 MISS:      15146
cpu0_L1D RFO          ACCESS:          0 HIT:          0 MISS:          0
cpu0_L1D PREFETCH     ACCESS:          0 HIT:          0 MISS:          0
cpu0_L1D WRITE        ACCESS:     774211 HIT:      86031 MISS:     688180
cpu0_L1D TRANSLATION  ACCESS:        241 HIT:         30 MISS:        211
cpu0_L1D PREFETCH REQUESTED:          0 ISSUED:          0 USEFUL:          0 USELESS:          0
cpu0_L1D AVERAGE MISS LATENCY: 8.592 cycles
cpu0_L1I TOTAL        ACCESS:          0 HIT:          0 MISS:          0
cpu0_L1I LOAD         ACCESS:          0 HIT:          0 MISS:          0
cpu0_L1I RFO          ACCESS:          0 HIT:          0 MISS:          0
cpu0_L1I PREFETCH     ACCESS:          0 HIT:          0 MISS:          0
cpu0_L1I WRITE        ACCESS:          0 HIT:          0 MISS:          0
cpu0_L1I TRANSLATION  ACCESS:          0 HIT:          0 MISS:          0
cpu0_L1I PREFETCH REQUESTED:          0 ISSUED:          0 USEFUL:          0 USELESS:          0
cpu0_L1I AVERAGE MISS LATENCY: -nan cycles
cpu0_L2C TOTAL        ACCESS:      42512 HIT:      26158 MISS:      16354
cpu0_L2C LOAD         ACCESS:      11805 HIT:      10813 MISS:        992
cpu0_L2C RFO          ACCESS:      15370 HIT:          9 MISS:      15361
cpu0_L2C PREFETCH     ACCESS:          0 HIT:          0 MISS:          0
cpu0_L2C WRITE        ACCESS:      15126 HIT:      15126 MISS:          0
cpu0_L2C TRANSLATION  ACCESS:        211 HIT:        210 MISS:          1
cpu0_L2C PREFETCH REQUESTED:          0 ISSUED:          0 USEFUL:          0 USELESS:          0
cpu0_L2C AVERAGE MISS LATENCY: 574.1 cycles
cpu0_STLB TOTAL        ACCESS:        897 HIT:        656 MISS:        241
cpu0_STLB LOAD         ACCESS:        897 HIT:        656 MISS:        241
cpu0_STLB RFO          ACCESS:          0 HIT:          0 MISS:          0
cpu0_STLB PREFETCH     ACCESS:          0 HIT:          0 MISS:          0
cpu0_STLB WRITE        ACCESS:          0 HIT:          0 MISS:          0
cpu0_STLB TRANSLATION  ACCESS:          0 HIT:          0 MISS:          0
cpu0_STLB PREFETCH REQUESTED:          0 ISSUED:          0 USEFUL:          0 USELESS:          0
cpu0_STLB AVERAGE MISS LATENCY: 216.2 cycles

DRAM Statistics

Channel 0 RQ ROW_BUFFER_HIT:      13317
  ROW_BUFFER_MISS:       2067
 AVG DBUS CONGESTED CYCLE: 3.952
WQ ROW_BUFFER_HIT: Channel 0 
  ROW_BUFFER_MISS:        233
  FULL:        851
