WARNING: physical memory size is smaller than virtual memory size.

*** ChampSim Multicore Out-of-Order Simulator ***
Warmup Instructions: 5000000
Simulation Instructions: 5000000
Number of CPUs: 1
Page size: 4096

Off-chip DRAM Size: 4 GiB Channels: 1 Width: 64-bit Data Race: 800 MT/s
Warmup finished CPU 0 instructions: 5000000 cycles: 1306033 cumulative IPC: 3.828 (Simulation time: 00 hr 00 min 12 sec)
Warmup complete CPU 0 instructions: 5000000 cycles: 1306033 cumulative IPC: 3.828 (Simulation time: 00 hr 00 min 12 sec)
Heartbeat CPU 0 instructions: 10000002 cycles: 7547661 heartbeat IPC: 1.325 cumulative IPC: 0.8011 (Simulation time: 00 hr 00 min 53 sec)
Simulation finished CPU 0 instructions: 5000002 cycles: 6241629 cumulative IPC: 0.8011 (Simulation time: 00 hr 00 min 53 sec)
Simulation complete CPU 0 instructions: 5000002 cycles: 6241629 cumulative IPC: 0.8011 (Simulation time: 00 hr 00 min 53 sec)

ChampSim completed all CPUs

=== Simulation ===
CPU 0 runs /scratch/cluster/hill/traces/spec2006/wrf_1228B.trace.xz
Region of Interest Statistics

CPU 0 cumulative IPC: 0.8011 instructions: 5000002 cycles: 6241629
CPU 0 Branch Prediction Accuracy: 96.16% MPKI: 1.251 Average ROB Occupancy at Mispredict: 324.2
Branch type MPKI
BRANCH_DIRECT_JUMP: 0.0034
BRANCH_INDIRECT: 0
BRANCH_CONDITIONAL: 1.25
BRANCH_DIRECT_CALL: 0.001
BRANCH_INDIRECT_CALL: 0
BRANCH_RETURN: 0.001

LLC TOTAL        ACCESS:      83048 HIT:      29778 MISS:      53270
LLC LOAD         ACCESS:      55138 HIT:       4808 MISS:      50330
LLC RFO          ACCESS:       3075 HIT:        194 MISS:       2881
LLC PREFETCH     ACCESS:          0 HIT:          0 MISS:          0
LLC WRITE        ACCESS:      24770 HIT:      24767 MISS:          3
LLC TRANSLATION  ACCESS:         65 HIT:          9 MISS:         56
LLC PREFETCH REQUESTED:          0 ISSUED:          0 USEFUL:          0 USELESS:          0
LLC AVERAGE MISS LATENCY: 452.1 cycles
cpu0_DTLB TOTAL        ACCESS:    1374112 HIT:    1368876 MISS:       5236
cpu0_DTLB LOAD         ACCESS:    1374112 HIT:    1368876 MISS:       5236
cpu0_DTLB RFO          ACCESS:          0 HIT:          0 MISS:          0
cpu0_DTLB PREFETCH     ACCESS:          0 HIT:          0 MISS:          0
cpu0_DTLB WRITE        ACCESS:          0 HIT:          0 MISS:          0
cpu0_DTLB TRANSLATION  ACCESS:          0 HIT:          0 MISS:          0
cpu0_DTLB PREFETCH REQUESTED:          0 ISSUED:          0 USEFUL:          0 USELESS:          0
cpu0_DTLB AVERAGE MISS LATENCY: 18.46 cycles
cpu0_ITLB TOTAL        ACCESS:        279 HIT:        246 MISS:         33
cpu0_ITLB LOAD         ACCESS:        279 HIT:        246 MISS:         33
cpu0_ITLB RFO          ACCESS:          0 HIT:          0 MISS:          0
cpu0_ITLB PREFETCH     ACCESS:          0 HIT:          0 MISS:          0
cpu0_ITLB WRITE        ACCESS:          0 HIT:          0 MISS:          0
cpu0_ITLB TRANSLATION  ACCESS:          0 HIT:          0 MISS:          0
cpu0_ITLB PREFETCH REQUESTED:          0 ISSUED:          0 USEFUL:          0 USELESS:          0
cpu0_ITLB AVERAGE MISS LATENCY: 347.2 cycles
cpu0_L1D TOTAL        ACCESS:    1800859 HIT:    1276888 MISS:     523971
cpu0_L1D LOAD         ACCESS:    1548538 HIT:    1063685 MISS:     484853
cpu0_L1D RFO          ACCESS:          0 HIT:          0 MISS:          0
cpu0_L1D PREFETCH     ACCESS:          0 HIT:          0 MISS:          0
cpu0_L1D WRITE        ACCESS:     251676 HIT:     213160 MISS:      38516
cpu0_L1D TRANSLATION  ACCESS:        645 HIT:         43 MISS:        602
cpu0_L1D PREFETCH REQUESTED:          0 ISSUED:          0 USEFUL:          0 USELESS:          0
cpu0_L1D AVERAGE MISS LATENCY: 36.63 cycles
cpu0_L1I TOTAL        ACCESS:        353 HIT:         73 MISS:        280
cpu0_L1I LOAD         ACCESS:        353 HIT:         73 MISS:        280
cpu0_L1I RFO          ACCESS:          0 HIT:          0 MISS:          0
cpu0_L1I PREFETCH     ACCESS:          0 HIT:          0 MISS:          0
cpu0_L1I WRITE        ACCESS:          0 HIT:          0 MISS:          0
cpu0_L1I TRANSLATION  ACCESS:          0 HIT:          0 MISS:          0
cpu0_L1I PREFETCH REQUESTED:          0 ISSUED:          0 USEFUL:          0 USELESS:          0
cpu0_L1I AVERAGE MISS LATENCY: 305.6 cycles
cpu0_L2C TOTAL        ACCESS:     222636 HIT:     164320 MISS:      58316
cpu0_L2C LOAD         ACCESS:     167448 HIT:     112310 MISS:      55138
cpu0_L2C RFO          ACCESS:      18675 HIT:      15600 MISS:       3075
cpu0_L2C PREFETCH     ACCESS:          0 HIT:          0 MISS:          0
cpu0_L2C WRITE        ACCESS:      35911 HIT:      35873 MISS:         38
cpu0_L2C TRANSLATION  ACCESS:        602 HIT:        537 MISS:         65
cpu0_L2C PREFETCH REQUESTED:          0 ISSUED:          0 USEFUL:          0 USELESS:          0
cpu0_L2C AVERAGE MISS LATENCY: 433.9 cycles
cpu0_STLB TOTAL        ACCESS:       1277 HIT:        635 MISS:        642
cpu0_STLB LOAD         ACCESS:       1277 HIT:        635 MISS:        642
cpu0_STLB RFO          ACCESS:          0 HIT:          0 MISS:          0
cpu0_STLB PREFETCH     ACCESS:          0 HIT:          0 MISS:          0
cpu0_STLB WRITE        ACCESS:          0 HIT:          0 MISS:          0
cpu0_STLB TRANSLATION  ACCESS:          0 HIT:          0 MISS:          0
cpu0_STLB PREFETCH REQUESTED:          0 ISSUED:          0 USEFUL:          0 USELESS:          0
cpu0_STLB AVERAGE MISS LATENCY: 269.5 cycles

DRAM Statistics

Channel 0 RQ ROW_BUFFER_HIT:      22283
  ROW_BUFFER_MISS:      30978
 AVG DBUS CONGESTED CYCLE: 3.857
WQ ROW_BUFFER_HIT: Channel 0 
  ROW_BUFFER_MISS:       4010
  FULL:      32205
