WARNING: physical memory size is smaller than virtual memory size.

*** ChampSim Multicore Out-of-Order Simulator ***
Warmup Instructions: 5000000
Simulation Instructions: 5000000
Number of CPUs: 1
Page size: 4096

Off-chip DRAM Size: 4 GiB Channels: 1 Width: 64-bit Data Race: 800 MT/s
Warmup finished CPU 0 instructions: 5000003 cycles: 1253032 cumulative IPC: 3.99 (Simulation time: 00 hr 00 min 11 sec)
Warmup complete CPU 0 instructions: 5000003 cycles: 1253032 cumulative IPC: 3.99 (Simulation time: 00 hr 00 min 11 sec)
Heartbeat CPU 0 instructions: 10000002 cycles: 4789888 heartbeat IPC: 2.088 cumulative IPC: 1.414 (Simulation time: 00 hr 00 min 32 sec)
Simulation finished CPU 0 instructions: 5000003 cycles: 3536858 cumulative IPC: 1.414 (Simulation time: 00 hr 00 min 32 sec)
Simulation complete CPU 0 instructions: 5000003 cycles: 3536858 cumulative IPC: 1.414 (Simulation time: 00 hr 00 min 32 sec)

ChampSim completed all CPUs

=== Simulation ===
CPU 0 runs /scratch/cluster/hill/traces/spec2006/bzip2_183B.trace.xz
Region of Interest Statistics

CPU 0 cumulative IPC: 1.414 instructions: 5000003 cycles: 3536858
CPU 0 Branch Prediction Accuracy: 90.44% MPKI: 16.71 Average ROB Occupancy at Mispredict: 38.75
Branch type MPKI
BRANCH_DIRECT_JUMP: 0.043
BRANCH_INDIRECT: 0
BRANCH_CONDITIONAL: 16.7
BRANCH_DIRECT_CALL: 0
BRANCH_INDIRECT_CALL: 0
BRANCH_RETURN: 0

LLC TOTAL        ACCESS:      57130 HIT:      45378 MISS:      11752
LLC LOAD         ACCESS:      24583 HIT:      18501 MISS:       6082
LLC RFO          ACCESS:      15607 HIT:       9948 MISS:       5659
LLC PREFETCH     ACCESS:          0 HIT:          0 MISS:          0
LLC WRITE        ACCESS:      16895 HIT:      16895 MISS:          0
LLC TRANSLATION  ACCESS:         45 HIT:         34 MISS:         11
LLC PREFETCH REQUESTED:          0 ISSUED:          0 USEFUL:          0 USELESS:          0
LLC AVERAGE MISS LATENCY: 619.5 cycles
cpu0_DTLB TOTAL        ACCESS:    1219243 HIT:    1191281 MISS:      27962
cpu0_DTLB LOAD         ACCESS:    1219243 HIT:    1191281 MISS:      27962
cpu0_DTLB RFO          ACCESS:          0 HIT:          0 MISS:          0
cpu0_DTLB PREFETCH     ACCESS:          0 HIT:          0 MISS:          0
cpu0_DTLB WRITE        ACCESS:          0 HIT:          0 MISS:          0
cpu0_DTLB TRANSLATION  ACCESS:          0 HIT:          0 MISS:          0
cpu0_DTLB PREFETCH REQUESTED:          0 ISSUED:          0 USEFUL:          0 USELESS:          0
cpu0_DTLB AVERAGE MISS LATENCY: 4.668 cycles
cpu0_ITLB TOTAL        ACCESS:         41 HIT:         41 MISS:          0
cpu0_ITLB LOAD         ACCESS:         41 HIT:         41 MISS:          0
cpu0_ITLB RFO          ACCESS:          0 HIT:          0 MISS:          0
cpu0_ITLB PREFETCH     ACCESS:          0 HIT:          0 MISS:          0
cpu0_ITLB WRITE        ACCESS:          0 HIT:          0 MISS:          0
cpu0_ITLB TRANSLATION  ACCESS:          0 HIT:          0 MISS:          0
cpu0_ITLB PREFETCH REQUESTED:          0 ISSUED:          0 USEFUL:          0 USELESS:          0
cpu0_ITLB AVERAGE MISS LATENCY: -nan cycles
cpu0_L1D TOTAL        ACCESS:    1605312 HIT:    1487327 MISS:     117985
cpu0_L1D LOAD         ACCESS:    1250476 HIT:    1161022 MISS:      89454
cpu0_L1D RFO          ACCESS:          0 HIT:          0 MISS:          0
cpu0_L1D PREFETCH     ACCESS:          0 HIT:          0 MISS:          0
cpu0_L1D WRITE        ACCESS:     354788 HIT:     326304 MISS:      28484
cpu0_L1D TRANSLATION  ACCESS:         48 HIT:          1 MISS:         47
cpu0_L1D PREFETCH REQUESTED:          0 ISSUED:          0 USEFUL:          0 USELESS:          0
cpu0_L1D AVERAGE MISS LATENCY: 71.57 cycles
cpu0_L1I TOTAL        ACCESS:         41 HIT:         41 MISS:          0
cpu0_L1I LOAD         ACCESS:         41 HIT:         41 MISS:          0
cpu0_L1I RFO          ACCESS:          0 HIT:          0 MISS:          0
cpu0_L1I PREFETCH     ACCESS:          0 HIT:          0 MISS:          0
cpu0_L1I WRITE        ACCESS:          0 HIT:          0 MISS:          0
cpu0_L1I TRANSLATION  ACCESS:          0 HIT:          0 MISS:          0
cpu0_L1I PREFETCH REQUESTED:          0 ISSUED:          0 USEFUL:          0 USELESS:          0
cpu0_L1I AVERAGE MISS LATENCY: -nan cycles
cpu0_L2C TOTAL        ACCESS:      89006 HIT:      48755 MISS:      40251
cpu0_L2C LOAD         ACCESS:      49696 HIT:      25113 MISS:      24583
cpu0_L2C RFO          ACCESS:      18054 HIT:       2447 MISS:      15607
cpu0_L2C PREFETCH     ACCESS:          0 HIT:          0 MISS:          0
cpu0_L2C WRITE        ACCESS:      21209 HIT:      21193 MISS:         16
cpu0_L2C TRANSLATION  ACCESS:         47 HIT:          2 MISS:         45
cpu0_L2C PREFETCH REQUESTED:          0 ISSUED:          0 USEFUL:          0 USELESS:          0
cpu0_L2C AVERAGE MISS LATENCY: 201.2 cycles
cpu0_STLB TOTAL        ACCESS:      18632 HIT:      18584 MISS:         48
cpu0_STLB LOAD         ACCESS:      18632 HIT:      18584 MISS:         48
cpu0_STLB RFO          ACCESS:          0 HIT:          0 MISS:          0
cpu0_STLB PREFETCH     ACCESS:          0 HIT:          0 MISS:          0
cpu0_STLB WRITE        ACCESS:          0 HIT:          0 MISS:          0
cpu0_STLB TRANSLATION  ACCESS:          0 HIT:          0 MISS:          0
cpu0_STLB PREFETCH REQUESTED:          0 ISSUED:          0 USEFUL:          0 USELESS:          0
cpu0_STLB AVERAGE MISS LATENCY: 338.2 cycles

DRAM Statistics

Channel 0 RQ ROW_BUFFER_HIT:       2209
  ROW_BUFFER_MISS:       9527
 AVG DBUS CONGESTED CYCLE: 3.899
WQ ROW_BUFFER_HIT: Channel 0 
  ROW_BUFFER_MISS:        132
  FULL:        634
