WARNING: physical memory size is smaller than virtual memory size.

*** ChampSim Multicore Out-of-Order Simulator ***
Warmup Instructions: 1000000
Simulation Instructions: 1000000
Number of CPUs: 1
Page size: 4096

Off-chip DRAM Size: 4 GiB Channels: 1 Width: 64-bit Data Race: 800 MT/s
Warmup finished CPU 0 instructions: 1000003 cycles: 489462 cumulative IPC: 2.043 (Simulation time: 00 hr 00 min 10 sec)
Warmup complete CPU 0 instructions: 1000003 cycles: 489462 cumulative IPC: 2.043 (Simulation time: 00 hr 00 min 10 sec)
Simulation finished CPU 0 instructions: 1000001 cycles: 571846 cumulative IPC: 1.749 (Simulation time: 00 hr 00 min 18 sec)
Simulation complete CPU 0 instructions: 1000001 cycles: 571846 cumulative IPC: 1.749 (Simulation time: 00 hr 00 min 18 sec)

ChampSim completed all CPUs

=== Simulation ===
CPU 0 runs /scratch/cluster/hill/traces/spec2006/gcc_56B.trace.xz
Region of Interest Statistics

CPU 0 cumulative IPC: 1.749 instructions: 1000001 cycles: 571846
CPU 0 Branch Prediction Accuracy: 99.29% MPKI: 1.222 Average ROB Occupancy at Mispredict: 85.87
Branch type MPKI
BRANCH_DIRECT_JUMP: 0.035
BRANCH_INDIRECT: 0.062
BRANCH_CONDITIONAL: 1.12
BRANCH_DIRECT_CALL: 0
BRANCH_INDIRECT_CALL: 0
BRANCH_RETURN: 0

LLC TOTAL        ACCESS:     211146 HIT:     210579 MISS:        567
LLC LOAD         ACCESS:       1907 HIT:       1497 MISS:        410
LLC RFO          ACCESS:     104281 HIT:     104151 MISS:        130
LLC PREFETCH     ACCESS:          0 HIT:          0 MISS:          0
LLC WRITE        ACCESS:     104922 HIT:     104922 MISS:          0
LLC TRANSLATION  ACCESS:         36 HIT:          9 MISS:         27
LLC PREFETCH REQUESTED:          0 ISSUED:          0 USEFUL:          0 USELESS:          0
LLC AVERAGE MISS LATENCY: 202.4 cycles
cpu0_DTLB TOTAL        ACCESS:     254772 HIT:     244011 MISS:      10761
cpu0_DTLB LOAD         ACCESS:     254772 HIT:     244011 MISS:      10761
cpu0_DTLB RFO          ACCESS:          0 HIT:          0 MISS:          0
cpu0_DTLB PREFETCH     ACCESS:          0 HIT:          0 MISS:          0
cpu0_DTLB WRITE        ACCESS:          0 HIT:          0 MISS:          0
cpu0_DTLB TRANSLATION  ACCESS:          0 HIT:          0 MISS:          0
cpu0_DTLB PREFETCH REQUESTED:          0 ISSUED:          0 USEFUL:          0 USELESS:          0
cpu0_DTLB AVERAGE MISS LATENCY: 2.342 cycles
cpu0_ITLB TOTAL        ACCESS:       6242 HIT:       6242 MISS:          0
cpu0_ITLB LOAD         ACCESS:       6242 HIT:       6242 MISS:          0
cpu0_ITLB RFO          ACCESS:          0 HIT:          0 MISS:          0
cpu0_ITLB PREFETCH     ACCESS:          0 HIT:          0 MISS:          0
cpu0_ITLB WRITE        ACCESS:          0 HIT:          0 MISS:          0
cpu0_ITLB TRANSLATION  ACCESS:          0 HIT:          0 MISS:          0
cpu0_ITLB PREFETCH REQUESTED:          0 ISSUED:          0 USEFUL:          0 USELESS:          0
cpu0_ITLB AVERAGE MISS LATENCY: -nan cycles
cpu0_L1D TOTAL        ACCESS:     458812 HIT:      38530 MISS:     420282
cpu0_L1D LOAD         ACCESS:      22646 HIT:      19187 MISS:       3459
cpu0_L1D RFO          ACCESS:          0 HIT:          0 MISS:          0
cpu0_L1D PREFETCH     ACCESS:          0 HIT:          0 MISS:          0
cpu0_L1D WRITE        ACCESS:     436130 HIT:      19343 MISS:     416787
cpu0_L1D TRANSLATION  ACCESS:         36 HIT:          0 MISS:         36
cpu0_L1D PREFETCH REQUESTED:          0 ISSUED:          0 USEFUL:          0 USELESS:          0
cpu0_L1D AVERAGE MISS LATENCY: 7.733 cycles
cpu0_L1I TOTAL        ACCESS:       6952 HIT:       6952 MISS:          0
cpu0_L1I LOAD         ACCESS:       6952 HIT:       6952 MISS:          0
cpu0_L1I RFO          ACCESS:          0 HIT:          0 MISS:          0
cpu0_L1I PREFETCH     ACCESS:          0 HIT:          0 MISS:          0
cpu0_L1I WRITE        ACCESS:          0 HIT:          0 MISS:          0
cpu0_L1I TRANSLATION  ACCESS:          0 HIT:          0 MISS:          0
cpu0_L1I PREFETCH REQUESTED:          0 ISSUED:          0 USEFUL:          0 USELESS:          0
cpu0_L1I AVERAGE MISS LATENCY: -nan cycles
cpu0_L2C TOTAL        ACCESS:     211267 HIT:     105043 MISS:     106224
cpu0_L2C LOAD         ACCESS:       1909 HIT:          2 MISS:       1907
cpu0_L2C RFO          ACCESS:     104299 HIT:         18 MISS:     104281
cpu0_L2C PREFETCH     ACCESS:          0 HIT:          0 MISS:          0
cpu0_L2C WRITE        ACCESS:     105023 HIT:     105023 MISS:          0
cpu0_L2C TRANSLATION  ACCESS:         36 HIT:          0 MISS:         36
cpu0_L2C PREFETCH REQUESTED:          0 ISSUED:          0 USEFUL:          0 USELESS:          0
cpu0_L2C AVERAGE MISS LATENCY: 21.32 cycles
cpu0_STLB TOTAL        ACCESS:       3211 HIT:       3179 MISS:         32
cpu0_STLB LOAD         ACCESS:       3211 HIT:       3179 MISS:         32
cpu0_STLB RFO          ACCESS:          0 HIT:          0 MISS:          0
cpu0_STLB PREFETCH     ACCESS:          0 HIT:          0 MISS:          0
cpu0_STLB WRITE        ACCESS:          0 HIT:          0 MISS:          0
cpu0_STLB TRANSLATION  ACCESS:          0 HIT:          0 MISS:          0
cpu0_STLB PREFETCH REQUESTED:          0 ISSUED:          0 USEFUL:          0 USELESS:          0
cpu0_STLB AVERAGE MISS LATENCY: 469.1 cycles

DRAM Statistics

Channel 0 RQ ROW_BUFFER_HIT:        176
  ROW_BUFFER_MISS:        390
 AVG DBUS CONGESTED CYCLE: 3.653
WQ ROW_BUFFER_HIT: Channel 0 
  ROW_BUFFER_MISS:          0
  FULL:          0
