WARNING: physical memory size is smaller than virtual memory size.

*** ChampSim Multicore Out-of-Order Simulator ***
Warmup Instructions: 1000000
Simulation Instructions: 1000000
Number of CPUs: 1
Page size: 4096

Off-chip DRAM Size: 4 GiB Channels: 1 Width: 64-bit Data Race: 800 MT/s
Warmup finished CPU 0 instructions: 1000003 cycles: 266360 cumulative IPC: 3.754 (Simulation time: 00 hr 00 min 04 sec)
Warmup complete CPU 0 instructions: 1000003 cycles: 266360 cumulative IPC: 3.754 (Simulation time: 00 hr 00 min 04 sec)
Simulation finished CPU 0 instructions: 1000002 cycles: 3852062 cumulative IPC: 0.2596 (Simulation time: 00 hr 00 min 31 sec)
Simulation complete CPU 0 instructions: 1000002 cycles: 3852062 cumulative IPC: 0.2596 (Simulation time: 00 hr 00 min 31 sec)

ChampSim completed all CPUs

=== Simulation ===
CPU 0 runs /scratch/cluster/hill/traces/spec2006/soplex_66B.trace.xz
Region of Interest Statistics

CPU 0 cumulative IPC: 0.2596 instructions: 1000002 cycles: 3852062
CPU 0 Branch Prediction Accuracy: 97.97% MPKI: 5.255 Average ROB Occupancy at Mispredict: 102.4
Branch type MPKI
BRANCH_DIRECT_JUMP: 0.004
BRANCH_INDIRECT: 0
BRANCH_CONDITIONAL: 5.23
BRANCH_DIRECT_CALL: 0.007
BRANCH_INDIRECT_CALL: 0.001
BRANCH_RETURN: 0.008

LLC TOTAL        ACCESS:      66043 HIT:      31711 MISS:      34332
LLC LOAD         ACCESS:      37398 HIT:       8624 MISS:      28774
LLC RFO          ACCESS:       6978 HIT:       1794 MISS:       5184
LLC PREFETCH     ACCESS:          0 HIT:          0 MISS:          0
LLC WRITE        ACCESS:      21086 HIT:      21086 MISS:          0
LLC TRANSLATION  ACCESS:        581 HIT:        207 MISS:        374
LLC PREFETCH REQUESTED:          0 ISSUED:          0 USEFUL:          0 USELESS:          0
LLC AVERAGE MISS LATENCY: 1129 cycles
cpu0_DTLB TOTAL        ACCESS:     223006 HIT:     212828 MISS:      10178
cpu0_DTLB LOAD         ACCESS:     223006 HIT:     212828 MISS:      10178
cpu0_DTLB RFO          ACCESS:          0 HIT:          0 MISS:          0
cpu0_DTLB PREFETCH     ACCESS:          0 HIT:          0 MISS:          0
cpu0_DTLB WRITE        ACCESS:          0 HIT:          0 MISS:          0
cpu0_DTLB TRANSLATION  ACCESS:          0 HIT:          0 MISS:          0
cpu0_DTLB PREFETCH REQUESTED:          0 ISSUED:          0 USEFUL:          0 USELESS:          0
cpu0_DTLB AVERAGE MISS LATENCY: 50.88 cycles
cpu0_ITLB TOTAL        ACCESS:         58 HIT:         44 MISS:         14
cpu0_ITLB LOAD         ACCESS:         58 HIT:         44 MISS:         14
cpu0_ITLB RFO          ACCESS:          0 HIT:          0 MISS:          0
cpu0_ITLB PREFETCH     ACCESS:          0 HIT:          0 MISS:          0
cpu0_ITLB WRITE        ACCESS:          0 HIT:          0 MISS:          0
cpu0_ITLB TRANSLATION  ACCESS:          0 HIT:          0 MISS:          0
cpu0_ITLB PREFETCH REQUESTED:          0 ISSUED:          0 USEFUL:          0 USELESS:          0
cpu0_ITLB AVERAGE MISS LATENCY: 257 cycles
cpu0_L1D TOTAL        ACCESS:     250633 HIT:      87705 MISS:     162928
cpu0_L1D LOAD         ACCESS:     184816 HIT:      49074 MISS:     135742
cpu0_L1D RFO          ACCESS:          0 HIT:          0 MISS:          0
cpu0_L1D PREFETCH     ACCESS:          0 HIT:          0 MISS:          0
cpu0_L1D WRITE        ACCESS:      64838 HIT:      38488 MISS:      26350
cpu0_L1D TRANSLATION  ACCESS:        979 HIT:        143 MISS:        836
cpu0_L1D PREFETCH REQUESTED:          0 ISSUED:          0 USEFUL:          0 USELESS:          0
cpu0_L1D AVERAGE MISS LATENCY: 240.5 cycles
cpu0_L1I TOTAL        ACCESS:         63 HIT:         17 MISS:         46
cpu0_L1I LOAD         ACCESS:         63 HIT:         17 MISS:         46
cpu0_L1I RFO          ACCESS:          0 HIT:          0 MISS:          0
cpu0_L1I PREFETCH     ACCESS:          0 HIT:          0 MISS:          0
cpu0_L1I WRITE        ACCESS:          0 HIT:          0 MISS:          0
cpu0_L1I TRANSLATION  ACCESS:          0 HIT:          0 MISS:          0
cpu0_L1I PREFETCH REQUESTED:          0 ISSUED:          0 USEFUL:          0 USELESS:          0
cpu0_L1I AVERAGE MISS LATENCY: 311.6 cycles
cpu0_L2C TOTAL        ACCESS:      81628 HIT:      36668 MISS:      44960
cpu0_L2C LOAD         ACCESS:      47301 HIT:       9903 MISS:      37398
cpu0_L2C RFO          ACCESS:       6979 HIT:          1 MISS:       6978
cpu0_L2C PREFETCH     ACCESS:          0 HIT:          0 MISS:          0
cpu0_L2C WRITE        ACCESS:      26513 HIT:      26510 MISS:          3
cpu0_L2C TRANSLATION  ACCESS:        835 HIT:        254 MISS:        581
cpu0_L2C PREFETCH REQUESTED:          0 ISSUED:          0 USEFUL:          0 USELESS:          0
cpu0_L2C AVERAGE MISS LATENCY: 882.9 cycles
cpu0_STLB TOTAL        ACCESS:       3478 HIT:       2509 MISS:        969
cpu0_STLB LOAD         ACCESS:       3478 HIT:       2509 MISS:        969
cpu0_STLB RFO          ACCESS:          0 HIT:          0 MISS:          0
cpu0_STLB PREFETCH     ACCESS:          0 HIT:          0 MISS:          0
cpu0_STLB WRITE        ACCESS:          0 HIT:          0 MISS:          0
cpu0_STLB TRANSLATION  ACCESS:          0 HIT:          0 MISS:          0
cpu0_STLB PREFETCH REQUESTED:          0 ISSUED:          0 USEFUL:          0 USELESS:          0
cpu0_STLB AVERAGE MISS LATENCY: 710.4 cycles

DRAM Statistics

Channel 0 RQ ROW_BUFFER_HIT:       8127
  ROW_BUFFER_MISS:      26200
 AVG DBUS CONGESTED CYCLE: 3.943
WQ ROW_BUFFER_HIT: Channel 0 
  ROW_BUFFER_MISS:        713
  FULL:      16367
