WARNING: physical memory size is smaller than virtual memory size.

*** ChampSim Multicore Out-of-Order Simulator ***
Warmup Instructions: 1000000
Simulation Instructions: 1000000
Number of CPUs: 1
Page size: 4096

Off-chip DRAM Size: 4 GiB Channels: 1 Width: 64-bit Data Race: 800 MT/s
Warmup finished CPU 0 instructions: 1000001 cycles: 253981 cumulative IPC: 3.937 (Simulation time: 00 hr 00 min 06 sec)
Warmup complete CPU 0 instructions: 1000001 cycles: 253981 cumulative IPC: 3.937 (Simulation time: 00 hr 00 min 06 sec)
Simulation finished CPU 0 instructions: 1000002 cycles: 470941 cumulative IPC: 2.123 (Simulation time: 00 hr 00 min 12 sec)
Simulation complete CPU 0 instructions: 1000002 cycles: 470941 cumulative IPC: 2.123 (Simulation time: 00 hr 00 min 12 sec)

ChampSim completed all CPUs

=== Simulation ===
CPU 0 runs /scratch/cluster/hill/traces/spec2006/zeusmp_600B.trace.xz
Region of Interest Statistics

CPU 0 cumulative IPC: 2.123 instructions: 1000002 cycles: 470941
CPU 0 Branch Prediction Accuracy: 99.71% MPKI: 0.111 Average ROB Occupancy at Mispredict: 351.2
Branch type MPKI
BRANCH_DIRECT_JUMP: 0
BRANCH_INDIRECT: 0
BRANCH_CONDITIONAL: 0.111
BRANCH_DIRECT_CALL: 0
BRANCH_INDIRECT_CALL: 0
BRANCH_RETURN: 0

LLC TOTAL        ACCESS:       4126 HIT:        938 MISS:       3188
LLC LOAD         ACCESS:       3008 HIT:        413 MISS:       2595
LLC RFO          ACCESS:        593 HIT:          0 MISS:        593
LLC PREFETCH     ACCESS:          0 HIT:          0 MISS:          0
LLC WRITE        ACCESS:        523 HIT:        523 MISS:          0
LLC TRANSLATION  ACCESS:          2 HIT:          2 MISS:          0
LLC PREFETCH REQUESTED:          0 ISSUED:          0 USEFUL:          0 USELESS:          0
LLC AVERAGE MISS LATENCY: 443 cycles
cpu0_DTLB TOTAL        ACCESS:     192181 HIT:     163436 MISS:      28745
cpu0_DTLB LOAD         ACCESS:     192181 HIT:     163436 MISS:      28745
cpu0_DTLB RFO          ACCESS:          0 HIT:          0 MISS:          0
cpu0_DTLB PREFETCH     ACCESS:          0 HIT:          0 MISS:          0
cpu0_DTLB WRITE        ACCESS:          0 HIT:          0 MISS:          0
cpu0_DTLB TRANSLATION  ACCESS:          0 HIT:          0 MISS:          0
cpu0_DTLB PREFETCH REQUESTED:          0 ISSUED:          0 USEFUL:          0 USELESS:          0
cpu0_DTLB AVERAGE MISS LATENCY: 7.606 cycles
cpu0_ITLB TOTAL        ACCESS:      12575 HIT:      12575 MISS:          0
cpu0_ITLB LOAD         ACCESS:      12575 HIT:      12575 MISS:          0
cpu0_ITLB RFO          ACCESS:          0 HIT:          0 MISS:          0
cpu0_ITLB PREFETCH     ACCESS:          0 HIT:          0 MISS:          0
cpu0_ITLB WRITE        ACCESS:          0 HIT:          0 MISS:          0
cpu0_ITLB TRANSLATION  ACCESS:          0 HIT:          0 MISS:          0
cpu0_ITLB PREFETCH REQUESTED:          0 ISSUED:          0 USEFUL:          0 USELESS:          0
cpu0_ITLB AVERAGE MISS LATENCY: -nan cycles
cpu0_L1D TOTAL        ACCESS:     231298 HIT:     224998 MISS:       6300
cpu0_L1D LOAD         ACCESS:     156857 HIT:     151931 MISS:       4926
cpu0_L1D RFO          ACCESS:          0 HIT:          0 MISS:          0
cpu0_L1D PREFETCH     ACCESS:          0 HIT:          0 MISS:          0
cpu0_L1D WRITE        ACCESS:      74394 HIT:      73067 MISS:       1327
cpu0_L1D TRANSLATION  ACCESS:         47 HIT:          0 MISS:         47
cpu0_L1D PREFETCH REQUESTED:          0 ISSUED:          0 USEFUL:          0 USELESS:          0
cpu0_L1D AVERAGE MISS LATENCY: 245.9 cycles
cpu0_L1I TOTAL        ACCESS:      14995 HIT:      14995 MISS:          0
cpu0_L1I LOAD         ACCESS:      14995 HIT:      14995 MISS:          0
cpu0_L1I RFO          ACCESS:          0 HIT:          0 MISS:          0
cpu0_L1I PREFETCH     ACCESS:          0 HIT:          0 MISS:          0
cpu0_L1I WRITE        ACCESS:          0 HIT:          0 MISS:          0
cpu0_L1I TRANSLATION  ACCESS:          0 HIT:          0 MISS:          0
cpu0_L1I PREFETCH REQUESTED:          0 ISSUED:          0 USEFUL:          0 USELESS:          0
cpu0_L1I AVERAGE MISS LATENCY: -nan cycles
cpu0_L2C TOTAL        ACCESS:       7512 HIT:       3904 MISS:       3608
cpu0_L2C LOAD         ACCESS:       4540 HIT:       1532 MISS:       3008
cpu0_L2C RFO          ACCESS:       1327 HIT:        734 MISS:        593
cpu0_L2C PREFETCH     ACCESS:          0 HIT:          0 MISS:          0
cpu0_L2C WRITE        ACCESS:       1598 HIT:       1593 MISS:          5
cpu0_L2C TRANSLATION  ACCESS:         47 HIT:         45 MISS:          2
cpu0_L2C PREFETCH REQUESTED:          0 ISSUED:          0 USEFUL:          0 USELESS:          0
cpu0_L2C AVERAGE MISS LATENCY: 412.3 cycles
cpu0_STLB TOTAL        ACCESS:      26592 HIT:      26545 MISS:         47
cpu0_STLB LOAD         ACCESS:      26592 HIT:      26545 MISS:         47
cpu0_STLB RFO          ACCESS:          0 HIT:          0 MISS:          0
cpu0_STLB PREFETCH     ACCESS:          0 HIT:          0 MISS:          0
cpu0_STLB WRITE        ACCESS:          0 HIT:          0 MISS:          0
cpu0_STLB TRANSLATION  ACCESS:          0 HIT:          0 MISS:          0
cpu0_STLB PREFETCH REQUESTED:          0 ISSUED:          0 USEFUL:          0 USELESS:          0
cpu0_STLB AVERAGE MISS LATENCY: 232.8 cycles

DRAM Statistics

Channel 0 RQ ROW_BUFFER_HIT:         50
  ROW_BUFFER_MISS:       3138
 AVG DBUS CONGESTED CYCLE: 3.919
WQ ROW_BUFFER_HIT: Channel 0 
  ROW_BUFFER_MISS:          0
  FULL:          0
