WARNING: physical memory size is smaller than virtual memory size.

*** ChampSim Multicore Out-of-Order Simulator ***
Warmup Instructions: 1000000
Simulation Instructions: 1000000
Number of CPUs: 1
Page size: 4096

Off-chip DRAM Size: 4 GiB Channels: 1 Width: 64-bit Data Race: 800 MT/s
Warmup finished CPU 0 instructions: 1000001 cycles: 250079 cumulative IPC: 3.999 (Simulation time: 00 hr 00 min 07 sec)
Warmup complete CPU 0 instructions: 1000001 cycles: 250079 cumulative IPC: 3.999 (Simulation time: 00 hr 00 min 07 sec)
Simulation finished CPU 0 instructions: 1000003 cycles: 1085232 cumulative IPC: 0.9215 (Simulation time: 00 hr 00 min 17 sec)
Simulation complete CPU 0 instructions: 1000003 cycles: 1085232 cumulative IPC: 0.9215 (Simulation time: 00 hr 00 min 17 sec)

ChampSim completed all CPUs

=== Simulation ===
CPU 0 runs /scratch/cluster/hill/traces/spec2006/bzip2_281B.trace.xz
Region of Interest Statistics

CPU 0 cumulative IPC: 0.9215 instructions: 1000003 cycles: 1085232
CPU 0 Branch Prediction Accuracy: 86.6% MPKI: 23.65 Average ROB Occupancy at Mispredict: 34.61
Branch type MPKI
BRANCH_DIRECT_JUMP: 0.043
BRANCH_INDIRECT: 0
BRANCH_CONDITIONAL: 23.6
BRANCH_DIRECT_CALL: 0
BRANCH_INDIRECT_CALL: 0
BRANCH_RETURN: 0

LLC TOTAL        ACCESS:       3885 HIT:        710 MISS:       3175
LLC LOAD         ACCESS:       3673 HIT:        512 MISS:       3161
LLC RFO          ACCESS:          2 HIT:          2 MISS:          0
LLC PREFETCH     ACCESS:          0 HIT:          0 MISS:          0
LLC WRITE        ACCESS:        182 HIT:        182 MISS:          0
LLC TRANSLATION  ACCESS:         28 HIT:         14 MISS:         14
LLC PREFETCH REQUESTED:          0 ISSUED:          0 USEFUL:          0 USELESS:          0
LLC AVERAGE MISS LATENCY: 207 cycles
cpu0_DTLB TOTAL        ACCESS:     253765 HIT:     239563 MISS:      14202
cpu0_DTLB LOAD         ACCESS:     253765 HIT:     239563 MISS:      14202
cpu0_DTLB RFO          ACCESS:          0 HIT:          0 MISS:          0
cpu0_DTLB PREFETCH     ACCESS:          0 HIT:          0 MISS:          0
cpu0_DTLB WRITE        ACCESS:          0 HIT:          0 MISS:          0
cpu0_DTLB TRANSLATION  ACCESS:          0 HIT:          0 MISS:          0
cpu0_DTLB PREFETCH REQUESTED:          0 ISSUED:          0 USEFUL:          0 USELESS:          0
cpu0_DTLB AVERAGE MISS LATENCY: 7.191 cycles
cpu0_ITLB TOTAL        ACCESS:          4 HIT:          4 MISS:          0
cpu0_ITLB LOAD         ACCESS:          4 HIT:          4 MISS:          0
cpu0_ITLB RFO          ACCESS:          0 HIT:          0 MISS:          0
cpu0_ITLB PREFETCH     ACCESS:          0 HIT:          0 MISS:          0
cpu0_ITLB WRITE        ACCESS:          0 HIT:          0 MISS:          0
cpu0_ITLB TRANSLATION  ACCESS:          0 HIT:          0 MISS:          0
cpu0_ITLB PREFETCH REQUESTED:          0 ISSUED:          0 USEFUL:          0 USELESS:          0
cpu0_ITLB AVERAGE MISS LATENCY: -nan cycles
cpu0_L1D TOTAL        ACCESS:     324287 HIT:     311976 MISS:      12311
cpu0_L1D LOAD         ACCESS:     248625 HIT:     236539 MISS:      12086
cpu0_L1D RFO          ACCESS:          0 HIT:          0 MISS:          0
cpu0_L1D PREFETCH     ACCESS:          0 HIT:          0 MISS:          0
cpu0_L1D WRITE        ACCESS:      75525 HIT:      75429 MISS:         96
cpu0_L1D TRANSLATION  ACCESS:        137 HIT:          8 MISS:        129
cpu0_L1D PREFETCH REQUESTED:          0 ISSUED:          0 USEFUL:          0 USELESS:          0
cpu0_L1D AVERAGE MISS LATENCY: 66.1 cycles
cpu0_L1I TOTAL        ACCESS:          5 HIT:          3 MISS:          2
cpu0_L1I LOAD         ACCESS:          5 HIT:          3 MISS:          2
cpu0_L1I RFO          ACCESS:          0 HIT:          0 MISS:          0
cpu0_L1I PREFETCH     ACCESS:          0 HIT:          0 MISS:          0
cpu0_L1I WRITE        ACCESS:          0 HIT:          0 MISS:          0
cpu0_L1I TRANSLATION  ACCESS:          0 HIT:          0 MISS:          0
cpu0_L1I PREFETCH REQUESTED:          0 ISSUED:          0 USEFUL:          0 USELESS:          0
cpu0_L1I AVERAGE MISS LATENCY: 118 cycles
cpu0_L2C TOTAL        ACCESS:      10762 HIT:       7058 MISS:       3704
cpu0_L2C LOAD         ACCESS:      10022 HIT:       6349 MISS:       3673
cpu0_L2C RFO          ACCESS:         43 HIT:         41 MISS:          2
cpu0_L2C PREFETCH     ACCESS:          0 HIT:          0 MISS:          0
cpu0_L2C WRITE        ACCESS:        569 HIT:        568 MISS:          1
cpu0_L2C TRANSLATION  ACCESS:        128 HIT:        100 MISS:         28
cpu0_L2C PREFETCH REQUESTED:          0 ISSUED:          0 USEFUL:          0 USELESS:          0
cpu0_L2C AVERAGE MISS LATENCY: 198.3 cycles
cpu0_STLB TOTAL        ACCESS:      10191 HIT:      10054 MISS:        137
cpu0_STLB LOAD         ACCESS:      10191 HIT:      10054 MISS:        137
cpu0_STLB RFO          ACCESS:          0 HIT:          0 MISS:          0
cpu0_STLB PREFETCH     ACCESS:          0 HIT:          0 MISS:          0
cpu0_STLB WRITE        ACCESS:          0 HIT:          0 MISS:          0
cpu0_STLB TRANSLATION  ACCESS:          0 HIT:          0 MISS:          0
cpu0_STLB PREFETCH REQUESTED:          0 ISSUED:          0 USEFUL:          0 USELESS:          0
cpu0_STLB AVERAGE MISS LATENCY: 246.7 cycles

DRAM Statistics

Channel 0 RQ ROW_BUFFER_HIT:        788
  ROW_BUFFER_MISS:       2387
 AVG DBUS CONGESTED CYCLE: 3.825
WQ ROW_BUFFER_HIT: Channel 0 
  ROW_BUFFER_MISS:          0
  FULL:          0
