WARNING: physical memory size is smaller than virtual memory size.

*** ChampSim Multicore Out-of-Order Simulator ***
Warmup Instructions: 1000000
Simulation Instructions: 1000000
Number of CPUs: 1
Page size: 4096

Off-chip DRAM Size: 4 GiB Channels: 1 Width: 64-bit Data Race: 800 MT/s
Warmup finished CPU 0 instructions: 1000000 cycles: 250109 cumulative IPC: 3.998 (Simulation time: 00 hr 00 min 06 sec)
Warmup complete CPU 0 instructions: 1000000 cycles: 250109 cumulative IPC: 3.998 (Simulation time: 00 hr 00 min 06 sec)
Simulation finished CPU 0 instructions: 1000000 cycles: 397985 cumulative IPC: 2.513 (Simulation time: 00 hr 00 min 12 sec)
Simulation complete CPU 0 instructions: 1000000 cycles: 397985 cumulative IPC: 2.513 (Simulation time: 00 hr 00 min 12 sec)

ChampSim completed all CPUs

=== Simulation ===
CPU 0 runs /scratch/cluster/hill/traces/spec2006/wrf_1650B.trace.xz
Region of Interest Statistics

CPU 0 cumulative IPC: 2.513 instructions: 1000000 cycles: 397985
CPU 0 Branch Prediction Accuracy: 99.94% MPKI: 0.066 Average ROB Occupancy at Mispredict: 205.8
Branch type MPKI
BRANCH_DIRECT_JUMP: 0
BRANCH_INDIRECT: 0
BRANCH_CONDITIONAL: 0.066
BRANCH_DIRECT_CALL: 0
BRANCH_INDIRECT_CALL: 0
BRANCH_RETURN: 0

LLC TOTAL        ACCESS:       1450 HIT:          0 MISS:       1450
LLC LOAD         ACCESS:       1035 HIT:          0 MISS:       1035
LLC RFO          ACCESS:        415 HIT:          0 MISS:        415
LLC PREFETCH     ACCESS:          0 HIT:          0 MISS:          0
LLC WRITE        ACCESS:          0 HIT:          0 MISS:          0
LLC TRANSLATION  ACCESS:          0 HIT:          0 MISS:          0
LLC PREFETCH REQUESTED:          0 ISSUED:          0 USEFUL:          0 USELESS:          0
LLC AVERAGE MISS LATENCY: 112.3 cycles
cpu0_DTLB TOTAL        ACCESS:     156021 HIT:     155974 MISS:         47
cpu0_DTLB LOAD         ACCESS:     156021 HIT:     155974 MISS:         47
cpu0_DTLB RFO          ACCESS:          0 HIT:          0 MISS:          0
cpu0_DTLB PREFETCH     ACCESS:          0 HIT:          0 MISS:          0
cpu0_DTLB WRITE        ACCESS:          0 HIT:          0 MISS:          0
cpu0_DTLB TRANSLATION  ACCESS:          0 HIT:          0 MISS:          0
cpu0_DTLB PREFETCH REQUESTED:          0 ISSUED:          0 USEFUL:          0 USELESS:          0
cpu0_DTLB AVERAGE MISS LATENCY: 50.98 cycles
cpu0_ITLB TOTAL        ACCESS:          0 HIT:          0 MISS:          0
cpu0_ITLB LOAD         ACCESS:          0 HIT:          0 MISS:          0
cpu0_ITLB RFO          ACCESS:          0 HIT:          0 MISS:          0
cpu0_ITLB PREFETCH     ACCESS:          0 HIT:          0 MISS:          0
cpu0_ITLB WRITE        ACCESS:          0 HIT:          0 MISS:          0
cpu0_ITLB TRANSLATION  ACCESS:          0 HIT:          0 MISS:          0
cpu0_ITLB PREFETCH REQUESTED:          0 ISSUED:          0 USEFUL:          0 USELESS:          0
cpu0_ITLB AVERAGE MISS LATENCY: -nan cycles
cpu0_L1D TOTAL        ACCESS:     178917 HIT:     176076 MISS:       2841
cpu0_L1D LOAD         ACCESS:     150388 HIT:     148436 MISS:       1952
cpu0_L1D RFO          ACCESS:          0 HIT:          0 MISS:          0
cpu0_L1D PREFETCH     ACCESS:          0 HIT:          0 MISS:          0
cpu0_L1D WRITE        ACCESS:      28506 HIT:      27640 MISS:        866
cpu0_L1D TRANSLATION  ACCESS:         23 HIT:          0 MISS:         23
cpu0_L1D PREFETCH REQUESTED:          0 ISSUED:          0 USEFUL:          0 USELESS:          0
cpu0_L1D AVERAGE MISS LATENCY: 18.94 cycles
cpu0_L1I TOTAL        ACCESS:          0 HIT:          0 MISS:          0
cpu0_L1I LOAD         ACCESS:          0 HIT:          0 MISS:          0
cpu0_L1I RFO          ACCESS:          0 HIT:          0 MISS:          0
cpu0_L1I PREFETCH     ACCESS:          0 HIT:          0 MISS:          0
cpu0_L1I WRITE        ACCESS:          0 HIT:          0 MISS:          0
cpu0_L1I TRANSLATION  ACCESS:          0 HIT:          0 MISS:          0
cpu0_L1I PREFETCH REQUESTED:          0 ISSUED:          0 USEFUL:          0 USELESS:          0
cpu0_L1I AVERAGE MISS LATENCY: -nan cycles
cpu0_L2C TOTAL        ACCESS:       1884 HIT:        434 MISS:       1450
cpu0_L2C LOAD         ACCESS:       1037 HIT:          2 MISS:       1035
cpu0_L2C RFO          ACCESS:        416 HIT:          1 MISS:        415
cpu0_L2C PREFETCH     ACCESS:          0 HIT:          0 MISS:          0
cpu0_L2C WRITE        ACCESS:        408 HIT:        408 MISS:          0
cpu0_L2C TRANSLATION  ACCESS:         23 HIT:         23 MISS:          0
cpu0_L2C PREFETCH REQUESTED:          0 ISSUED:          0 USEFUL:          0 USELESS:          0
cpu0_L2C AVERAGE MISS LATENCY: 133.2 cycles
cpu0_STLB TOTAL        ACCESS:         23 HIT:          0 MISS:         23
cpu0_STLB LOAD         ACCESS:         23 HIT:          0 MISS:         23
cpu0_STLB RFO          ACCESS:          0 HIT:          0 MISS:          0
cpu0_STLB PREFETCH     ACCESS:          0 HIT:          0 MISS:          0
cpu0_STLB WRITE        ACCESS:          0 HIT:          0 MISS:          0
cpu0_STLB TRANSLATION  ACCESS:          0 HIT:          0 MISS:          0
cpu0_STLB PREFETCH REQUESTED:          0 ISSUED:          0 USEFUL:          0 USELESS:          0
cpu0_STLB AVERAGE MISS LATENCY: 217 cycles

DRAM Statistics

Channel 0 RQ ROW_BUFFER_HIT:       1295
  ROW_BUFFER_MISS:        154
 AVG DBUS CONGESTED CYCLE: 3.872
WQ ROW_BUFFER_HIT: Channel 0 
  ROW_BUFFER_MISS:          0
  FULL:          0
