WARNING: physical memory size is smaller than virtual memory size.

*** ChampSim Multicore Out-of-Order Simulator ***
Warmup Instructions: 1000000
Simulation Instructions: 1000000
Number of CPUs: 1
Page size: 4096

Off-chip DRAM Size: 4 GiB Channels: 1 Width: 64-bit Data Race: 800 MT/s
Warmup finished CPU 0 instructions: 1000001 cycles: 250073 cumulative IPC: 3.999 (Simulation time: 00 hr 00 min 03 sec)
Warmup complete CPU 0 instructions: 1000001 cycles: 250073 cumulative IPC: 3.999 (Simulation time: 00 hr 00 min 03 sec)
Simulation finished CPU 0 instructions: 1000003 cycles: 1575383 cumulative IPC: 0.6348 (Simulation time: 00 hr 00 min 16 sec)
Simulation complete CPU 0 instructions: 1000003 cycles: 1575383 cumulative IPC: 0.6348 (Simulation time: 00 hr 00 min 16 sec)

ChampSim completed all CPUs

=== Simulation ===
CPU 0 runs /scratch/cluster/hill/traces/spec2006/sphinx3_2520B.trace.xz
Region of Interest Statistics

CPU 0 cumulative IPC: 0.6348 instructions: 1000003 cycles: 1575383
CPU 0 Branch Prediction Accuracy: 95.58% MPKI: 5.583 Average ROB Occupancy at Mispredict: 156.2
Branch type MPKI
BRANCH_DIRECT_JUMP: 0.549
BRANCH_INDIRECT: 0
BRANCH_CONDITIONAL: 4.89
BRANCH_DIRECT_CALL: 0.03
BRANCH_INDIRECT_CALL: 0
BRANCH_RETURN: 0.109

LLC TOTAL        ACCESS:      17646 HIT:       2334 MISS:      15312
LLC LOAD         ACCESS:      15444 HIT:       1443 MISS:      14001
LLC RFO          ACCESS:        693 HIT:          4 MISS:        689
LLC PREFETCH     ACCESS:          0 HIT:          0 MISS:          0
LLC WRITE        ACCESS:        764 HIT:        764 MISS:          0
LLC TRANSLATION  ACCESS:        745 HIT:        123 MISS:        622
LLC PREFETCH REQUESTED:          0 ISSUED:          0 USEFUL:          0 USELESS:          0
LLC AVERAGE MISS LATENCY: 308.1 cycles
cpu0_DTLB TOTAL        ACCESS:     221098 HIT:     209755 MISS:      11343
cpu0_DTLB LOAD         ACCESS:     221098 HIT:     209755 MISS:      11343
cpu0_DTLB RFO          ACCESS:          0 HIT:          0 MISS:          0
cpu0_DTLB PREFETCH     ACCESS:          0 HIT:          0 MISS:          0
cpu0_DTLB WRITE        ACCESS:          0 HIT:          0 MISS:          0
cpu0_DTLB TRANSLATION  ACCESS:          0 HIT:          0 MISS:          0
cpu0_DTLB PREFETCH REQUESTED:          0 ISSUED:          0 USEFUL:          0 USELESS:          0
cpu0_DTLB AVERAGE MISS LATENCY: 41.25 cycles
cpu0_ITLB TOTAL        ACCESS:        229 HIT:        199 MISS:         30
cpu0_ITLB LOAD         ACCESS:        229 HIT:        199 MISS:         30
cpu0_ITLB RFO          ACCESS:          0 HIT:          0 MISS:          0
cpu0_ITLB PREFETCH     ACCESS:          0 HIT:          0 MISS:          0
cpu0_ITLB WRITE        ACCESS:          0 HIT:          0 MISS:          0
cpu0_ITLB TRANSLATION  ACCESS:          0 HIT:          0 MISS:          0
cpu0_ITLB PREFETCH REQUESTED:          0 ISSUED:          0 USEFUL:          0 USELESS:          0
cpu0_ITLB AVERAGE MISS LATENCY: 236.3 cycles
cpu0_L1D TOTAL        ACCESS:     263782 HIT:     153736 MISS:     110046
cpu0_L1D LOAD         ACCESS:     225523 HIT:     121393 MISS:     104130
cpu0_L1D RFO          ACCESS:          0 HIT:          0 MISS:          0
cpu0_L1D PREFETCH     ACCESS:          0 HIT:          0 MISS:          0
cpu0_L1D WRITE        ACCESS:      36653 HIT:      32004 MISS:       4649
cpu0_L1D TRANSLATION  ACCESS:       1606 HIT:        339 MISS:       1267
cpu0_L1D PREFETCH REQUESTED:          0 ISSUED:          0 USEFUL:          0 USELESS:          0
cpu0_L1D AVERAGE MISS LATENCY: 36.22 cycles
cpu0_L1I TOTAL        ACCESS:        264 HIT:         98 MISS:        166
cpu0_L1I LOAD         ACCESS:        264 HIT:         98 MISS:        166
cpu0_L1I RFO          ACCESS:          0 HIT:          0 MISS:          0
cpu0_L1I PREFETCH     ACCESS:          0 HIT:          0 MISS:          0
cpu0_L1I WRITE        ACCESS:          0 HIT:          0 MISS:          0
cpu0_L1I TRANSLATION  ACCESS:          0 HIT:          0 MISS:          0
cpu0_L1I PREFETCH REQUESTED:          0 ISSUED:          0 USEFUL:          0 USELESS:          0
cpu0_L1I AVERAGE MISS LATENCY: 197.3 cycles
cpu0_L2C TOTAL        ACCESS:      25694 HIT:       8800 MISS:      16894
cpu0_L2C LOAD         ACCESS:      22044 HIT:       6600 MISS:      15444
cpu0_L2C RFO          ACCESS:        785 HIT:         92 MISS:        693
cpu0_L2C PREFETCH     ACCESS:          0 HIT:          0 MISS:          0
cpu0_L2C WRITE        ACCESS:       1651 HIT:       1639 MISS:         12
cpu0_L2C TRANSLATION  ACCESS:       1214 HIT:        469 MISS:        745
cpu0_L2C PREFETCH REQUESTED:          0 ISSUED:          0 USEFUL:          0 USELESS:          0
cpu0_L2C AVERAGE MISS LATENCY: 300.1 cycles
cpu0_STLB TOTAL        ACCESS:       3806 HIT:       2218 MISS:       1588
cpu0_STLB LOAD         ACCESS:       3806 HIT:       2218 MISS:       1588
cpu0_STLB RFO          ACCESS:          0 HIT:          0 MISS:          0
cpu0_STLB PREFETCH     ACCESS:          0 HIT:          0 MISS:          0
cpu0_STLB WRITE        ACCESS:          0 HIT:          0 MISS:          0
cpu0_STLB TRANSLATION  ACCESS:          0 HIT:          0 MISS:          0
cpu0_STLB PREFETCH REQUESTED:          0 ISSUED:          0 USEFUL:          0 USELESS:          0
cpu0_STLB AVERAGE MISS LATENCY: 387.8 cycles

DRAM Statistics

Channel 0 RQ ROW_BUFFER_HIT:       7743
  ROW_BUFFER_MISS:       7567
 AVG DBUS CONGESTED CYCLE: 3.825
WQ ROW_BUFFER_HIT: Channel 0 
  ROW_BUFFER_MISS:          1
  FULL:          0
