WARNING: physical memory size is smaller than virtual memory size.

*** ChampSim Multicore Out-of-Order Simulator ***
Warmup Instructions: 1000000
Simulation Instructions: 1000000
Number of CPUs: 1
Page size: 4096

Off-chip DRAM Size: 4 GiB Channels: 1 Width: 64-bit Data Race: 800 MT/s
Warmup finished CPU 0 instructions: 1000003 cycles: 251033 cumulative IPC: 3.984 (Simulation time: 00 hr 00 min 04 sec)
Warmup complete CPU 0 instructions: 1000003 cycles: 251033 cumulative IPC: 3.984 (Simulation time: 00 hr 00 min 04 sec)
Simulation finished CPU 0 instructions: 1000000 cycles: 2285776 cumulative IPC: 0.4375 (Simulation time: 00 hr 00 min 22 sec)
Simulation complete CPU 0 instructions: 1000000 cycles: 2285776 cumulative IPC: 0.4375 (Simulation time: 00 hr 00 min 22 sec)

ChampSim completed all CPUs

=== Simulation ===
CPU 0 runs /scratch/cluster/hill/traces/spec2006/xalancbmk_99B.trace.xz
Region of Interest Statistics

CPU 0 cumulative IPC: 0.4375 instructions: 1000000 cycles: 2285776
CPU 0 Branch Prediction Accuracy: 98.35% MPKI: 5.09 Average ROB Occupancy at Mispredict: 104.6
Branch type MPKI
BRANCH_DIRECT_JUMP: 0
BRANCH_INDIRECT: 0
BRANCH_CONDITIONAL: 5.09
BRANCH_DIRECT_CALL: 0
BRANCH_INDIRECT_CALL: 0
BRANCH_RETURN: 0

LLC TOTAL        ACCESS:      32103 HIT:        769 MISS:      31334
LLC LOAD         ACCESS:      31232 HIT:        651 MISS:      30581
LLC RFO          ACCESS:          0 HIT:          0 MISS:          0
LLC PREFETCH     ACCESS:          0 HIT:          0 MISS:          0
LLC WRITE        ACCESS:          0 HIT:          0 MISS:          0
LLC TRANSLATION  ACCESS:        871 HIT:        118 MISS:        753
LLC PREFETCH REQUESTED:          0 ISSUED:          0 USEFUL:          0 USELESS:          0
LLC AVERAGE MISS LATENCY: 306.6 cycles
cpu0_DTLB TOTAL        ACCESS:     237939 HIT:     223950 MISS:      13989
cpu0_DTLB LOAD         ACCESS:     237939 HIT:     223950 MISS:      13989
cpu0_DTLB RFO          ACCESS:          0 HIT:          0 MISS:          0
cpu0_DTLB PREFETCH     ACCESS:          0 HIT:          0 MISS:          0
cpu0_DTLB WRITE        ACCESS:          0 HIT:          0 MISS:          0
cpu0_DTLB TRANSLATION  ACCESS:          0 HIT:          0 MISS:          0
cpu0_DTLB PREFETCH REQUESTED:          0 ISSUED:          0 USEFUL:          0 USELESS:          0
cpu0_DTLB AVERAGE MISS LATENCY: 39.68 cycles
cpu0_ITLB TOTAL        ACCESS:          0 HIT:          0 MISS:          0
cpu0_ITLB LOAD         ACCESS:          0 HIT:          0 MISS:          0
cpu0_ITLB RFO          ACCESS:          0 HIT:          0 MISS:          0
cpu0_ITLB PREFETCH     ACCESS:          0 HIT:          0 MISS:          0
cpu0_ITLB WRITE        ACCESS:          0 HIT:          0 MISS:          0
cpu0_ITLB TRANSLATION  ACCESS:          0 HIT:          0 MISS:          0
cpu0_ITLB PREFETCH REQUESTED:          0 ISSUED:          0 USEFUL:          0 USELESS:          0
cpu0_ITLB AVERAGE MISS LATENCY: -nan cycles
cpu0_L1D TOTAL        ACCESS:     290602 HIT:     206428 MISS:      84174
cpu0_L1D LOAD         ACCESS:     278309 HIT:     195825 MISS:      82484
cpu0_L1D RFO          ACCESS:          0 HIT:          0 MISS:          0
cpu0_L1D PREFETCH     ACCESS:          0 HIT:          0 MISS:          0
cpu0_L1D WRITE        ACCESS:       9654 HIT:       9654 MISS:          0
cpu0_L1D TRANSLATION  ACCESS:       2639 HIT:        949 MISS:       1690
cpu0_L1D PREFETCH REQUESTED:          0 ISSUED:          0 USEFUL:          0 USELESS:          0
cpu0_L1D AVERAGE MISS LATENCY: 121.6 cycles
cpu0_L1I TOTAL        ACCESS:          0 HIT:          0 MISS:          0
cpu0_L1I LOAD         ACCESS:          0 HIT:          0 MISS:          0
cpu0_L1I RFO          ACCESS:          0 HIT:          0 MISS:          0
cpu0_L1I PREFETCH     ACCESS:          0 HIT:          0 MISS:          0
cpu0_L1I WRITE        ACCESS:          0 HIT:          0 MISS:          0
cpu0_L1I TRANSLATION  ACCESS:          0 HIT:          0 MISS:          0
cpu0_L1I PREFETCH REQUESTED:          0 ISSUED:          0 USEFUL:          0 USELESS:          0
cpu0_L1I AVERAGE MISS LATENCY: -nan cycles
cpu0_L2C TOTAL        ACCESS:      33083 HIT:        980 MISS:      32103
cpu0_L2C LOAD         ACCESS:      31399 HIT:        167 MISS:      31232
cpu0_L2C RFO          ACCESS:          0 HIT:          0 MISS:          0
cpu0_L2C PREFETCH     ACCESS:          0 HIT:          0 MISS:          0
cpu0_L2C WRITE        ACCESS:          0 HIT:          0 MISS:          0
cpu0_L2C TRANSLATION  ACCESS:       1684 HIT:        813 MISS:        871
cpu0_L2C PREFETCH REQUESTED:          0 ISSUED:          0 USEFUL:          0 USELESS:          0
cpu0_L2C AVERAGE MISS LATENCY: 320.3 cycles
cpu0_STLB TOTAL        ACCESS:       3173 HIT:        565 MISS:       2608
cpu0_STLB LOAD         ACCESS:       3173 HIT:        565 MISS:       2608
cpu0_STLB RFO          ACCESS:          0 HIT:          0 MISS:          0
cpu0_STLB PREFETCH     ACCESS:          0 HIT:          0 MISS:          0
cpu0_STLB WRITE        ACCESS:          0 HIT:          0 MISS:          0
cpu0_STLB TRANSLATION  ACCESS:          0 HIT:          0 MISS:          0
cpu0_STLB PREFETCH REQUESTED:          0 ISSUED:          0 USEFUL:          0 USELESS:          0
cpu0_STLB AVERAGE MISS LATENCY: 232.7 cycles

DRAM Statistics

Channel 0 RQ ROW_BUFFER_HIT:      19423
  ROW_BUFFER_MISS:      11912
 AVG DBUS CONGESTED CYCLE: 3.896
WQ ROW_BUFFER_HIT: Channel 0 
  ROW_BUFFER_MISS:        123
  FULL:        170
