WARNING: physical memory size is smaller than virtual memory size.

*** ChampSim Multicore Out-of-Order Simulator ***
Warmup Instructions: 1000000
Simulation Instructions: 1000000
Number of CPUs: 1
Page size: 4096

Off-chip DRAM Size: 4 GiB Channels: 1 Width: 64-bit Data Race: 800 MT/s
Warmup finished CPU 0 instructions: 1000003 cycles: 489462 cumulative IPC: 2.043 (Simulation time: 00 hr 00 min 05 sec)
Warmup complete CPU 0 instructions: 1000003 cycles: 489462 cumulative IPC: 2.043 (Simulation time: 00 hr 00 min 05 sec)
Simulation finished CPU 0 instructions: 1000002 cycles: 609341 cumulative IPC: 1.641 (Simulation time: 00 hr 00 min 12 sec)
Simulation complete CPU 0 instructions: 1000002 cycles: 609341 cumulative IPC: 1.641 (Simulation time: 00 hr 00 min 12 sec)

ChampSim completed all CPUs

=== Simulation ===
CPU 0 runs /scratch/cluster/hill/traces/spec2006/gcc_56B.trace.xz
Region of Interest Statistics

CPU 0 cumulative IPC: 1.641 instructions: 1000002 cycles: 609341
CPU 0 Branch Prediction Accuracy: 98.08% MPKI: 3.285 Average ROB Occupancy at Mispredict: 48.31
Branch type MPKI
BRANCH_DIRECT_JUMP: 0.035
BRANCH_INDIRECT: 0.062
BRANCH_CONDITIONAL: 3.19
BRANCH_DIRECT_CALL: 0
BRANCH_INDIRECT_CALL: 0
BRANCH_RETURN: 0

LLC TOTAL        ACCESS:     211149 HIT:     210582 MISS:        567
LLC LOAD         ACCESS:       1908 HIT:       1497 MISS:        411
LLC RFO          ACCESS:     104280 HIT:     104151 MISS:        129
LLC PREFETCH     ACCESS:          0 HIT:          0 MISS:          0
LLC WRITE        ACCESS:     104925 HIT:     104925 MISS:          0
LLC TRANSLATION  ACCESS:         36 HIT:          9 MISS:         27
LLC PREFETCH REQUESTED:          0 ISSUED:          0 USEFUL:          0 USELESS:          0
LLC AVERAGE MISS LATENCY: 195.1 cycles
cpu0_DTLB TOTAL        ACCESS:     255536 HIT:     244912 MISS:      10624
cpu0_DTLB LOAD         ACCESS:     255536 HIT:     244912 MISS:      10624
cpu0_DTLB RFO          ACCESS:          0 HIT:          0 MISS:          0
cpu0_DTLB PREFETCH     ACCESS:          0 HIT:          0 MISS:          0
cpu0_DTLB WRITE        ACCESS:          0 HIT:          0 MISS:          0
cpu0_DTLB TRANSLATION  ACCESS:          0 HIT:          0 MISS:          0
cpu0_DTLB PREFETCH REQUESTED:          0 ISSUED:          0 USEFUL:          0 USELESS:          0
cpu0_DTLB AVERAGE MISS LATENCY: 2.415 cycles
cpu0_ITLB TOTAL        ACCESS:       6020 HIT:       6020 MISS:          0
cpu0_ITLB LOAD         ACCESS:       6020 HIT:       6020 MISS:          0
cpu0_ITLB RFO          ACCESS:          0 HIT:          0 MISS:          0
cpu0_ITLB PREFETCH     ACCESS:          0 HIT:          0 MISS:          0
cpu0_ITLB WRITE        ACCESS:          0 HIT:          0 MISS:          0
cpu0_ITLB TRANSLATION  ACCESS:          0 HIT:          0 MISS:          0
cpu0_ITLB PREFETCH REQUESTED:          0 ISSUED:          0 USEFUL:          0 USELESS:          0
cpu0_ITLB AVERAGE MISS LATENCY: -nan cycles
cpu0_L1D TOTAL        ACCESS:     459363 HIT:      39348 MISS:     420015
cpu0_L1D LOAD         ACCESS:      23208 HIT:      19991 MISS:       3217
cpu0_L1D RFO          ACCESS:          0 HIT:          0 MISS:          0
cpu0_L1D PREFETCH     ACCESS:          0 HIT:          0 MISS:          0
cpu0_L1D WRITE        ACCESS:     436119 HIT:      19357 MISS:     416762
cpu0_L1D TRANSLATION  ACCESS:         36 HIT:          0 MISS:         36
cpu0_L1D PREFETCH REQUESTED:          0 ISSUED:          0 USEFUL:          0 USELESS:          0
cpu0_L1D AVERAGE MISS LATENCY: 7.729 cycles
cpu0_L1I TOTAL        ACCESS:       6721 HIT:       6721 MISS:          0
cpu0_L1I LOAD         ACCESS:       6721 HIT:       6721 MISS:          0
cpu0_L1I RFO          ACCESS:          0 HIT:          0 MISS:          0
cpu0_L1I PREFETCH     ACCESS:          0 HIT:          0 MISS:          0
cpu0_L1I WRITE        ACCESS:          0 HIT:          0 MISS:          0
cpu0_L1I TRANSLATION  ACCESS:          0 HIT:          0 MISS:          0
cpu0_L1I PREFETCH REQUESTED:          0 ISSUED:          0 USEFUL:          0 USELESS:          0
cpu0_L1I AVERAGE MISS LATENCY: -nan cycles
cpu0_L2C TOTAL        ACCESS:     211270 HIT:     105046 MISS:     106224
cpu0_L2C LOAD         ACCESS:       1910 HIT:          2 MISS:       1908
cpu0_L2C RFO          ACCESS:     104298 HIT:         18 MISS:     104280
cpu0_L2C PREFETCH     ACCESS:          0 HIT:          0 MISS:          0
cpu0_L2C WRITE        ACCESS:     105026 HIT:     105026 MISS:          0
cpu0_L2C TRANSLATION  ACCESS:         36 HIT:          0 MISS:         36
cpu0_L2C PREFETCH REQUESTED:          0 ISSUED:          0 USEFUL:          0 USELESS:          0
cpu0_L2C AVERAGE MISS LATENCY: 21.27 cycles
cpu0_STLB TOTAL        ACCESS:       3210 HIT:       3178 MISS:         32
cpu0_STLB LOAD         ACCESS:       3210 HIT:       3178 MISS:         32
cpu0_STLB RFO          ACCESS:          0 HIT:          0 MISS:          0
cpu0_STLB PREFETCH     ACCESS:          0 HIT:          0 MISS:          0
cpu0_STLB WRITE        ACCESS:          0 HIT:          0 MISS:          0
cpu0_STLB TRANSLATION  ACCESS:          0 HIT:          0 MISS:          0
cpu0_STLB PREFETCH REQUESTED:          0 ISSUED:          0 USEFUL:          0 USELESS:          0
cpu0_STLB AVERAGE MISS LATENCY: 455.7 cycles

DRAM Statistics

Channel 0 RQ ROW_BUFFER_HIT:        176
  ROW_BUFFER_MISS:        390
 AVG DBUS CONGESTED CYCLE: 3.678
WQ ROW_BUFFER_HIT: Channel 0 
  ROW_BUFFER_MISS:          0
  FULL:          0
