WARNING: physical memory size is smaller than virtual memory size.

*** ChampSim Multicore Out-of-Order Simulator ***
Warmup Instructions: 1000000
Simulation Instructions: 1000000
Number of CPUs: 1
Page size: 4096

Off-chip DRAM Size: 4 GiB Channels: 1 Width: 64-bit Data Race: 800 MT/s
Warmup finished CPU 0 instructions: 1000002 cycles: 250116 cumulative IPC: 3.998 (Simulation time: 00 hr 00 min 04 sec)
Warmup complete CPU 0 instructions: 1000002 cycles: 250116 cumulative IPC: 3.998 (Simulation time: 00 hr 00 min 04 sec)
Simulation finished CPU 0 instructions: 1000002 cycles: 2899688 cumulative IPC: 0.3449 (Simulation time: 00 hr 00 min 34 sec)
Simulation complete CPU 0 instructions: 1000002 cycles: 2899688 cumulative IPC: 0.3449 (Simulation time: 00 hr 00 min 34 sec)

ChampSim completed all CPUs

=== Simulation ===
CPU 0 runs /scratch/cluster/hill/traces/spec2006/GemsFDTD_109B.trace.xz
Region of Interest Statistics

CPU 0 cumulative IPC: 0.3449 instructions: 1000002 cycles: 2899688
CPU 0 Branch Prediction Accuracy: 99.11% MPKI: 0.084 Average ROB Occupancy at Mispredict: 352
Branch type MPKI
BRANCH_DIRECT_JUMP: 0
BRANCH_INDIRECT: 0
BRANCH_CONDITIONAL: 0.084
BRANCH_DIRECT_CALL: 0
BRANCH_INDIRECT_CALL: 0
BRANCH_RETURN: 0

LLC TOTAL        ACCESS:      38557 HIT:      13536 MISS:      25021
LLC LOAD         ACCESS:      25022 HIT:          4 MISS:      25018
LLC RFO          ACCESS:          0 HIT:          0 MISS:          0
LLC PREFETCH     ACCESS:          0 HIT:          0 MISS:          0
LLC WRITE        ACCESS:      13511 HIT:      13511 MISS:          0
LLC TRANSLATION  ACCESS:         24 HIT:         21 MISS:          3
LLC PREFETCH REQUESTED:          0 ISSUED:          0 USEFUL:          0 USELESS:          0
LLC AVERAGE MISS LATENCY: 918.9 cycles
cpu0_DTLB TOTAL        ACCESS:     323151 HIT:     322015 MISS:       1136
cpu0_DTLB LOAD         ACCESS:     323151 HIT:     322015 MISS:       1136
cpu0_DTLB RFO          ACCESS:          0 HIT:          0 MISS:          0
cpu0_DTLB PREFETCH     ACCESS:          0 HIT:          0 MISS:          0
cpu0_DTLB WRITE        ACCESS:          0 HIT:          0 MISS:          0
cpu0_DTLB TRANSLATION  ACCESS:          0 HIT:          0 MISS:          0
cpu0_DTLB PREFETCH REQUESTED:          0 ISSUED:          0 USEFUL:          0 USELESS:          0
cpu0_DTLB AVERAGE MISS LATENCY: 54.39 cycles
cpu0_ITLB TOTAL        ACCESS:          0 HIT:          0 MISS:          0
cpu0_ITLB LOAD         ACCESS:          0 HIT:          0 MISS:          0
cpu0_ITLB RFO          ACCESS:          0 HIT:          0 MISS:          0
cpu0_ITLB PREFETCH     ACCESS:          0 HIT:          0 MISS:          0
cpu0_ITLB WRITE        ACCESS:          0 HIT:          0 MISS:          0
cpu0_ITLB TRANSLATION  ACCESS:          0 HIT:          0 MISS:          0
cpu0_ITLB PREFETCH REQUESTED:          0 ISSUED:          0 USEFUL:          0 USELESS:          0
cpu0_ITLB AVERAGE MISS LATENCY: -nan cycles
cpu0_L1D TOTAL        ACCESS:     411154 HIT:     296031 MISS:     115123
cpu0_L1D LOAD         ACCESS:     301036 HIT:     186377 MISS:     114659
cpu0_L1D RFO          ACCESS:          0 HIT:          0 MISS:          0
cpu0_L1D PREFETCH     ACCESS:          0 HIT:          0 MISS:          0
cpu0_L1D WRITE        ACCESS:     109704 HIT:     109636 MISS:         68
cpu0_L1D TRANSLATION  ACCESS:        414 HIT:         18 MISS:        396
cpu0_L1D PREFETCH REQUESTED:          0 ISSUED:          0 USEFUL:          0 USELESS:          0
cpu0_L1D AVERAGE MISS LATENCY: 85.01 cycles
cpu0_L1I TOTAL        ACCESS:          0 HIT:          0 MISS:          0
cpu0_L1I LOAD         ACCESS:          0 HIT:          0 MISS:          0
cpu0_L1I RFO          ACCESS:          0 HIT:          0 MISS:          0
cpu0_L1I PREFETCH     ACCESS:          0 HIT:          0 MISS:          0
cpu0_L1I WRITE        ACCESS:          0 HIT:          0 MISS:          0
cpu0_L1I TRANSLATION  ACCESS:          0 HIT:          0 MISS:          0
cpu0_L1I PREFETCH REQUESTED:          0 ISSUED:          0 USEFUL:          0 USELESS:          0
cpu0_L1I AVERAGE MISS LATENCY: -nan cycles
cpu0_L2C TOTAL        ACCESS:      43384 HIT:      18338 MISS:      25046
cpu0_L2C LOAD         ACCESS:      29172 HIT:       4150 MISS:      25022
cpu0_L2C RFO          ACCESS:         67 HIT:         67 MISS:          0
cpu0_L2C PREFETCH     ACCESS:          0 HIT:          0 MISS:          0
cpu0_L2C WRITE        ACCESS:      13749 HIT:      13749 MISS:          0
cpu0_L2C TRANSLATION  ACCESS:        396 HIT:        372 MISS:         24
cpu0_L2C PREFETCH REQUESTED:          0 ISSUED:          0 USEFUL:          0 USELESS:          0
cpu0_L2C AVERAGE MISS LATENCY: 939 cycles
cpu0_STLB TOTAL        ACCESS:        589 HIT:        175 MISS:        414
cpu0_STLB LOAD         ACCESS:        589 HIT:        175 MISS:        414
cpu0_STLB RFO          ACCESS:          0 HIT:          0 MISS:          0
cpu0_STLB PREFETCH     ACCESS:          0 HIT:          0 MISS:          0
cpu0_STLB WRITE        ACCESS:          0 HIT:          0 MISS:          0
cpu0_STLB TRANSLATION  ACCESS:          0 HIT:          0 MISS:          0
cpu0_STLB PREFETCH REQUESTED:          0 ISSUED:          0 USEFUL:          0 USELESS:          0
cpu0_STLB AVERAGE MISS LATENCY: 231.3 cycles

DRAM Statistics

Channel 0 RQ ROW_BUFFER_HIT:      17238
  ROW_BUFFER_MISS:       7776
 AVG DBUS CONGESTED CYCLE: 3.869
WQ ROW_BUFFER_HIT: Channel 0 
  ROW_BUFFER_MISS:       1931
  FULL:       7291
Heartbeat CPU 0 instructions: 190000002 cycles: 623707464 heartbeat IPC: 0.1502 cumulative IPC: 0.1504 (Simulation time: 02 hr 06 min 27 sec)
Heartbeat CPU 0 instructions: 200000001 cycles: 690251609 heartbeat IPC: 0.1503 cumulative IPC: 0.1503 (Simulation time: 02 hr 15 min 40 sec)
Simulation finished CPU 0 instructions: 100000000 cycles: 665116667 cumulative IPC: 0.1503 (Simulation time: 02 hr 15 min 40 sec)
Simulation complete CPU 0 instructions: 100000000 cycles: 665116667 cumulative IPC: 0.1503 (Simulation time: 02 hr 15 min 40 sec)

ChampSim completed all CPUs

=== Simulation ===
CPU 0 runs /scratch/cluster/hill/traces/spec2006/GemsFDTD_109B.trace.xz
Region of Interest Statistics

CPU 0 cumulative IPC: 0.1503 instructions: 100000000 cycles: 665116667
CPU 0 Branch Prediction Accuracy: 98.64% MPKI: 0.2666 Average ROB Occupancy at Mispredict: 332.5
Branch type MPKI
BRANCH_DIRECT_JUMP: 0
BRANCH_INDIRECT: 0
BRANCH_CONDITIONAL: 0.267
BRANCH_DIRECT_CALL: 0
BRANCH_INDIRECT_CALL: 0
BRANCH_RETURN: 0

LLC TOTAL        ACCESS:    5271318 HIT:    1444118 MISS:    3827200
LLC LOAD         ACCESS:    3831465 HIT:       5801 MISS:    3825664
LLC RFO          ACCESS:          0 HIT:          0 MISS:          0
LLC PREFETCH     ACCESS:          0 HIT:          0 MISS:          0
LLC WRITE        ACCESS:    1435308 HIT:    1435181 MISS:        127
LLC TRANSLATION  ACCESS:       4545 HIT:       3136 MISS:       1409
LLC PREFETCH REQUESTED:          0 ISSUED:          0 USEFUL:          0 USELESS:          0
LLC AVERAGE MISS LATENCY: 2091 cycles
cpu0_DTLB TOTAL        ACCESS:   32820196 HIT:   32689492 MISS:     130704
cpu0_DTLB LOAD         ACCESS:   32820196 HIT:   32689492 MISS:     130704
cpu0_DTLB RFO          ACCESS:          0 HIT:          0 MISS:          0
cpu0_DTLB PREFETCH     ACCESS:          0 HIT:          0 MISS:          0
cpu0_DTLB WRITE        ACCESS:          0 HIT:          0 MISS:          0
cpu0_DTLB TRANSLATION  ACCESS:          0 HIT:          0 MISS:          0
cpu0_DTLB PREFETCH REQUESTED:          0 ISSUED:          0 USEFUL:          0 USELESS:          0
cpu0_DTLB AVERAGE MISS LATENCY: 47.99 cycles
cpu0_ITLB TOTAL        ACCESS:          0 HIT:          0 MISS:          0
cpu0_ITLB LOAD         ACCESS:          0 HIT:          0 MISS:          0
cpu0_ITLB RFO          ACCESS:          0 HIT:          0 MISS:          0
cpu0_ITLB PREFETCH     ACCESS:          0 HIT:          0 MISS:          0
cpu0_ITLB WRITE        ACCESS:          0 HIT:          0 MISS:          0
cpu0_ITLB TRANSLATION  ACCESS:          0 HIT:          0 MISS:          0
cpu0_ITLB PREFETCH REQUESTED:          0 ISSUED:          0 USEFUL:          0 USELESS:          0
cpu0_ITLB AVERAGE MISS LATENCY: -nan cycles
cpu0_L1D TOTAL        ACCESS:   41774752 HIT:   19166603 MISS:   22608149
cpu0_L1D LOAD         ACCESS:   32158702 HIT:    9597301 MISS:   22561401
cpu0_L1D RFO          ACCESS:          0 HIT:          0 MISS:          0
cpu0_L1D PREFETCH     ACCESS:          0 HIT:          0 MISS:          0
cpu0_L1D WRITE        ACCESS:    9566689 HIT:    9566612 MISS:         77
cpu0_L1D TRANSLATION  ACCESS:      49361 HIT:       2690 MISS:      46671
cpu0_L1D PREFETCH REQUESTED:          0 ISSUED:          0 USEFUL:          0 USELESS:          0
cpu0_L1D AVERAGE MISS LATENCY: 218.6 cycles
cpu0_L1I TOTAL        ACCESS:          0 HIT:          0 MISS:          0
cpu0_L1I LOAD         ACCESS:          0 HIT:          0 MISS:          0
cpu0_L1I RFO          ACCESS:          0 HIT:          0 MISS:          0
cpu0_L1I PREFETCH     ACCESS:          0 HIT:          0 MISS:          0
cpu0_L1I WRITE        ACCESS:          0 HIT:          0 MISS:          0
cpu0_L1I TRANSLATION  ACCESS:          0 HIT:          0 MISS:          0
cpu0_L1I PREFETCH REQUESTED:          0 ISSUED:          0 USEFUL:          0 USELESS:          0
cpu0_L1I AVERAGE MISS LATENCY: -nan cycles
cpu0_L2C TOTAL        ACCESS:    5329287 HIT:    1493045 MISS:    3836242
cpu0_L2C LOAD         ACCESS:    3842239 HIT:      10775 MISS:    3831464
cpu0_L2C RFO          ACCESS:         19 HIT:         19 MISS:          0
cpu0_L2C PREFETCH     ACCESS:          0 HIT:          0 MISS:          0
cpu0_L2C WRITE        ACCESS:    1440360 HIT:    1440127 MISS:        233
cpu0_L2C TRANSLATION  ACCESS:      46669 HIT:      42124 MISS:       4545
cpu0_L2C PREFETCH REQUESTED:          0 ISSUED:          0 USEFUL:          0 USELESS:          0
cpu0_L2C AVERAGE MISS LATENCY: 2107 cycles
cpu0_STLB TOTAL        ACCESS:      65698 HIT:      16447 MISS:      49251
cpu0_STLB LOAD         ACCESS:      65698 HIT:      16447 MISS:      49251
cpu0_STLB RFO          ACCESS:          0 HIT:          0 MISS:          0
cpu0_STLB PREFETCH     ACCESS:          0 HIT:          0 MISS:          0
cpu0_STLB WRITE        ACCESS:          0 HIT:          0 MISS:          0
cpu0_STLB TRANSLATION  ACCESS:          0 HIT:          0 MISS:          0
cpu0_STLB PREFETCH REQUESTED:          0 ISSUED:          0 USEFUL:          0 USELESS:          0
cpu0_STLB AVERAGE MISS LATENCY: 188 cycles

DRAM Statistics

Channel 0 RQ ROW_BUFFER_HIT:     467557
  ROW_BUFFER_MISS:    3359504
 AVG DBUS CONGESTED CYCLE: 3.986
WQ ROW_BUFFER_HIT: Channel 0 
  ROW_BUFFER_MISS:     121559
  FULL:    1313269
