WARNING: physical memory size is smaller than virtual memory size.

*** ChampSim Multicore Out-of-Order Simulator ***
Warmup Instructions: 1000000
Simulation Instructions: 1000000
Number of CPUs: 1
Page size: 4096

Off-chip DRAM Size: 4 GiB Channels: 1 Width: 64-bit Data Race: 800 MT/s
Warmup finished CPU 0 instructions: 1000003 cycles: 250410 cumulative IPC: 3.993 (Simulation time: 00 hr 00 min 08 sec)
Warmup complete CPU 0 instructions: 1000003 cycles: 250410 cumulative IPC: 3.993 (Simulation time: 00 hr 00 min 08 sec)
Simulation finished CPU 0 instructions: 1000003 cycles: 741639 cumulative IPC: 1.348 (Simulation time: 00 hr 00 min 21 sec)
Simulation complete CPU 0 instructions: 1000003 cycles: 741639 cumulative IPC: 1.348 (Simulation time: 00 hr 00 min 21 sec)

ChampSim completed all CPUs

=== Simulation ===
CPU 0 runs /scratch/cluster/hill/traces/spec2006/cactusADM_1495B.trace.xz
Region of Interest Statistics

CPU 0 cumulative IPC: 1.348 instructions: 1000003 cycles: 741639
CPU 0 Branch Prediction Accuracy: 98.37% MPKI: 0.019 Average ROB Occupancy at Mispredict: 352
Branch type MPKI
BRANCH_DIRECT_JUMP: 0
BRANCH_INDIRECT: 0
BRANCH_CONDITIONAL: 0.019
BRANCH_DIRECT_CALL: 0
BRANCH_INDIRECT_CALL: 0
BRANCH_RETURN: 0

LLC TOTAL        ACCESS:       6572 HIT:        808 MISS:       5764
LLC LOAD         ACCESS:       4684 HIT:          0 MISS:       4684
LLC RFO          ACCESS:        851 HIT:          0 MISS:        851
LLC PREFETCH     ACCESS:          0 HIT:          0 MISS:          0
LLC WRITE        ACCESS:        808 HIT:        808 MISS:          0
LLC TRANSLATION  ACCESS:        229 HIT:          0 MISS:        229
LLC PREFETCH REQUESTED:          0 ISSUED:          0 USEFUL:          0 USELESS:          0
LLC AVERAGE MISS LATENCY: 431.4 cycles
cpu0_DTLB TOTAL        ACCESS:     231769 HIT:     215519 MISS:      16250
cpu0_DTLB LOAD         ACCESS:     231769 HIT:     215519 MISS:      16250
cpu0_DTLB RFO          ACCESS:          0 HIT:          0 MISS:          0
cpu0_DTLB PREFETCH     ACCESS:          0 HIT:          0 MISS:          0
cpu0_DTLB WRITE        ACCESS:          0 HIT:          0 MISS:          0
cpu0_DTLB TRANSLATION  ACCESS:          0 HIT:          0 MISS:          0
cpu0_DTLB PREFETCH REQUESTED:          0 ISSUED:          0 USEFUL:          0 USELESS:          0
cpu0_DTLB AVERAGE MISS LATENCY: 18.31 cycles
cpu0_ITLB TOTAL        ACCESS:     151219 HIT:     151219 MISS:          0
cpu0_ITLB LOAD         ACCESS:     151219 HIT:     151219 MISS:          0
cpu0_ITLB RFO          ACCESS:          0 HIT:          0 MISS:          0
cpu0_ITLB PREFETCH     ACCESS:          0 HIT:          0 MISS:          0
cpu0_ITLB WRITE        ACCESS:          0 HIT:          0 MISS:          0
cpu0_ITLB TRANSLATION  ACCESS:          0 HIT:          0 MISS:          0
cpu0_ITLB PREFETCH REQUESTED:          0 ISSUED:          0 USEFUL:          0 USELESS:          0
cpu0_ITLB AVERAGE MISS LATENCY: -nan cycles
cpu0_L1D TOTAL        ACCESS:     361621 HIT:     345045 MISS:      16576
cpu0_L1D LOAD         ACCESS:     248057 HIT:     236861 MISS:      11196
cpu0_L1D RFO          ACCESS:          0 HIT:          0 MISS:          0
cpu0_L1D PREFETCH     ACCESS:          0 HIT:          0 MISS:          0
cpu0_L1D WRITE        ACCESS:     106087 HIT:     104577 MISS:       1510
cpu0_L1D TRANSLATION  ACCESS:       7477 HIT:       3607 MISS:       3870
cpu0_L1D PREFETCH REQUESTED:          0 ISSUED:          0 USEFUL:          0 USELESS:          0
cpu0_L1D AVERAGE MISS LATENCY: 163.3 cycles
cpu0_L1I TOTAL        ACCESS:     197534 HIT:     197534 MISS:          0
cpu0_L1I LOAD         ACCESS:     197534 HIT:     197534 MISS:          0
cpu0_L1I RFO          ACCESS:          0 HIT:          0 MISS:          0
cpu0_L1I PREFETCH     ACCESS:          0 HIT:          0 MISS:          0
cpu0_L1I WRITE        ACCESS:          0 HIT:          0 MISS:          0
cpu0_L1I TRANSLATION  ACCESS:          0 HIT:          0 MISS:          0
cpu0_L1I PREFETCH REQUESTED:          0 ISSUED:          0 USEFUL:          0 USELESS:          0
cpu0_L1I AVERAGE MISS LATENCY: -nan cycles
cpu0_L2C TOTAL        ACCESS:      16216 HIT:      10450 MISS:       5766
cpu0_L2C LOAD         ACCESS:       9917 HIT:       5232 MISS:       4685
cpu0_L2C RFO          ACCESS:       1195 HIT:        344 MISS:        851
cpu0_L2C PREFETCH     ACCESS:          0 HIT:          0 MISS:          0
cpu0_L2C WRITE        ACCESS:       1234 HIT:       1233 MISS:          1
cpu0_L2C TRANSLATION  ACCESS:       3870 HIT:       3641 MISS:        229
cpu0_L2C PREFETCH REQUESTED:          0 ISSUED:          0 USEFUL:          0 USELESS:          0
cpu0_L2C AVERAGE MISS LATENCY: 452.3 cycles
cpu0_STLB TOTAL        ACCESS:      11720 HIT:       7707 MISS:       4013
cpu0_STLB LOAD         ACCESS:      11720 HIT:       7707 MISS:       4013
cpu0_STLB RFO          ACCESS:          0 HIT:          0 MISS:          0
cpu0_STLB PREFETCH     ACCESS:          0 HIT:          0 MISS:          0
cpu0_STLB WRITE        ACCESS:          0 HIT:          0 MISS:          0
cpu0_STLB TRANSLATION  ACCESS:          0 HIT:          0 MISS:          0
cpu0_STLB PREFETCH REQUESTED:          0 ISSUED:          0 USEFUL:          0 USELESS:          0
cpu0_STLB AVERAGE MISS LATENCY: 53.95 cycles

DRAM Statistics

Channel 0 RQ ROW_BUFFER_HIT:       1641
  ROW_BUFFER_MISS:       4119
 AVG DBUS CONGESTED CYCLE: 3.761
WQ ROW_BUFFER_HIT: Channel 0 
  ROW_BUFFER_MISS:          0
  FULL:          0
