WARNING: physical memory size is smaller than virtual memory size.

*** ChampSim Multicore Out-of-Order Simulator ***
Warmup Instructions: 5000000
Simulation Instructions: 5000000
Number of CPUs: 1
Page size: 4096

Off-chip DRAM Size: 4 GiB Channels: 1 Width: 64-bit Data Race: 800 MT/s
Warmup finished CPU 0 instructions: 5000003 cycles: 1250122 cumulative IPC: 4 (Simulation time: 00 hr 00 min 38 sec)
Warmup complete CPU 0 instructions: 5000003 cycles: 1250122 cumulative IPC: 4 (Simulation time: 00 hr 00 min 38 sec)
Heartbeat CPU 0 instructions: 10000001 cycles: 27765045 heartbeat IPC: 0.3602 cumulative IPC: 0.1886 (Simulation time: 00 hr 07 min 45 sec)
Simulation finished CPU 0 instructions: 5000002 cycles: 26514925 cumulative IPC: 0.1886 (Simulation time: 00 hr 07 min 45 sec)
Simulation complete CPU 0 instructions: 5000002 cycles: 26514925 cumulative IPC: 0.1886 (Simulation time: 00 hr 07 min 45 sec)

ChampSim completed all CPUs

=== Simulation ===
CPU 0 runs /scratch/cluster/hill/traces/spec2006/GemsFDTD_712B.trace.xz
Region of Interest Statistics

CPU 0 cumulative IPC: 0.1886 instructions: 5000002 cycles: 26514925
CPU 0 Branch Prediction Accuracy: 97.29% MPKI: 0.5324 Average ROB Occupancy at Mispredict: 312.2
Branch type MPKI
BRANCH_DIRECT_JUMP: 0
BRANCH_INDIRECT: 0
BRANCH_CONDITIONAL: 0.532
BRANCH_DIRECT_CALL: 0
BRANCH_INDIRECT_CALL: 0
BRANCH_RETURN: 0

LLC TOTAL        ACCESS:     263492 HIT:      72824 MISS:     190668
LLC LOAD         ACCESS:     191555 HIT:        959 MISS:     190596
LLC RFO          ACCESS:          0 HIT:          0 MISS:          0
LLC PREFETCH     ACCESS:          0 HIT:          0 MISS:          0
LLC WRITE        ACCESS:      71712 HIT:      71705 MISS:          7
LLC TRANSLATION  ACCESS:        225 HIT:        160 MISS:         65
LLC PREFETCH REQUESTED:          0 ISSUED:          0 USEFUL:          0 USELESS:          0
LLC AVERAGE MISS LATENCY: 1659 cycles
cpu0_DTLB TOTAL        ACCESS:    1625188 HIT:    1616431 MISS:       8757
cpu0_DTLB LOAD         ACCESS:    1625188 HIT:    1616431 MISS:       8757
cpu0_DTLB RFO          ACCESS:          0 HIT:          0 MISS:          0
cpu0_DTLB PREFETCH     ACCESS:          0 HIT:          0 MISS:          0
cpu0_DTLB WRITE        ACCESS:          0 HIT:          0 MISS:          0
cpu0_DTLB TRANSLATION  ACCESS:          0 HIT:          0 MISS:          0
cpu0_DTLB PREFETCH REQUESTED:          0 ISSUED:          0 USEFUL:          0 USELESS:          0
cpu0_DTLB AVERAGE MISS LATENCY: 44.61 cycles
cpu0_ITLB TOTAL        ACCESS:          0 HIT:          0 MISS:          0
cpu0_ITLB LOAD         ACCESS:          0 HIT:          0 MISS:          0
cpu0_ITLB RFO          ACCESS:          0 HIT:          0 MISS:          0
cpu0_ITLB PREFETCH     ACCESS:          0 HIT:          0 MISS:          0
cpu0_ITLB WRITE        ACCESS:          0 HIT:          0 MISS:          0
cpu0_ITLB TRANSLATION  ACCESS:          0 HIT:          0 MISS:          0
cpu0_ITLB PREFETCH REQUESTED:          0 ISSUED:          0 USEFUL:          0 USELESS:          0
cpu0_ITLB AVERAGE MISS LATENCY: -nan cycles
cpu0_L1D TOTAL        ACCESS:    2073270 HIT:     967353 MISS:    1105917
cpu0_L1D LOAD         ACCESS:    1592297 HIT:     488689 MISS:    1103608
cpu0_L1D RFO          ACCESS:          0 HIT:          0 MISS:          0
cpu0_L1D PREFETCH     ACCESS:          0 HIT:          0 MISS:          0
cpu0_L1D WRITE        ACCESS:     478508 HIT:     478503 MISS:          5
cpu0_L1D TRANSLATION  ACCESS:       2465 HIT:        161 MISS:       2304
cpu0_L1D PREFETCH REQUESTED:          0 ISSUED:          0 USEFUL:          0 USELESS:          0
cpu0_L1D AVERAGE MISS LATENCY: 187.6 cycles
cpu0_L1I TOTAL        ACCESS:          0 HIT:          0 MISS:          0
cpu0_L1I LOAD         ACCESS:          0 HIT:          0 MISS:          0
cpu0_L1I RFO          ACCESS:          0 HIT:          0 MISS:          0
cpu0_L1I PREFETCH     ACCESS:          0 HIT:          0 MISS:          0
cpu0_L1I WRITE        ACCESS:          0 HIT:          0 MISS:          0
cpu0_L1I TRANSLATION  ACCESS:          0 HIT:          0 MISS:          0
cpu0_L1I PREFETCH REQUESTED:          0 ISSUED:          0 USEFUL:          0 USELESS:          0
cpu0_L1I AVERAGE MISS LATENCY: -nan cycles
cpu0_L2C TOTAL        ACCESS:     267221 HIT:      75430 MISS:     191791
cpu0_L2C LOAD         ACCESS:     192589 HIT:       1034 MISS:     191555
cpu0_L2C RFO          ACCESS:          2 HIT:          2 MISS:          0
cpu0_L2C PREFETCH     ACCESS:          0 HIT:          0 MISS:          0
cpu0_L2C WRITE        ACCESS:      72326 HIT:      72315 MISS:         11
cpu0_L2C TRANSLATION  ACCESS:       2304 HIT:       2079 MISS:        225
cpu0_L2C PREFETCH REQUESTED:          0 ISSUED:          0 USEFUL:          0 USELESS:          0
cpu0_L2C AVERAGE MISS LATENCY: 1670 cycles
cpu0_STLB TOTAL        ACCESS:       3284 HIT:        824 MISS:       2460
cpu0_STLB LOAD         ACCESS:       3284 HIT:        824 MISS:       2460
cpu0_STLB RFO          ACCESS:          0 HIT:          0 MISS:          0
cpu0_STLB PREFETCH     ACCESS:          0 HIT:          0 MISS:          0
cpu0_STLB WRITE        ACCESS:          0 HIT:          0 MISS:          0
cpu0_STLB TRANSLATION  ACCESS:          0 HIT:          0 MISS:          0
cpu0_STLB PREFETCH REQUESTED:          0 ISSUED:          0 USEFUL:          0 USELESS:          0
cpu0_STLB AVERAGE MISS LATENCY: 261.3 cycles

DRAM Statistics

Channel 0 RQ ROW_BUFFER_HIT:     116330
  ROW_BUFFER_MISS:      74321
 AVG DBUS CONGESTED CYCLE: 3.943
WQ ROW_BUFFER_HIT: Channel 0 
  ROW_BUFFER_MISS:      10741
  FULL:      61056
