WARNING: physical memory size is smaller than virtual memory size.

*** ChampSim Multicore Out-of-Order Simulator ***
Warmup Instructions: 5000000
Simulation Instructions: 5000000
Number of CPUs: 1
Page size: 4096

Off-chip DRAM Size: 4 GiB Channels: 1 Width: 64-bit Data Race: 800 MT/s
Warmup finished CPU 0 instructions: 5000001 cycles: 1288483 cumulative IPC: 3.881 (Simulation time: 00 hr 00 min 36 sec)
Warmup complete CPU 0 instructions: 5000001 cycles: 1288483 cumulative IPC: 3.881 (Simulation time: 00 hr 00 min 36 sec)
Heartbeat CPU 0 instructions: 10000002 cycles: 13454768 heartbeat IPC: 0.7432 cumulative IPC: 0.411 (Simulation time: 00 hr 03 min 57 sec)
Simulation finished CPU 0 instructions: 5000001 cycles: 12166286 cumulative IPC: 0.411 (Simulation time: 00 hr 03 min 57 sec)
Simulation complete CPU 0 instructions: 5000001 cycles: 12166286 cumulative IPC: 0.411 (Simulation time: 00 hr 03 min 57 sec)

ChampSim completed all CPUs

=== Simulation ===
CPU 0 runs /scratch/cluster/hill/traces/spec2006/bwaves_1861B.trace.xz
Region of Interest Statistics

CPU 0 cumulative IPC: 0.411 instructions: 5000001 cycles: 12166286
CPU 0 Branch Prediction Accuracy: 81.22% MPKI: 5.619 Average ROB Occupancy at Mispredict: 261.5
Branch type MPKI
BRANCH_DIRECT_JUMP: 0
BRANCH_INDIRECT: 0
BRANCH_CONDITIONAL: 5.62
BRANCH_DIRECT_CALL: 0
BRANCH_INDIRECT_CALL: 0
BRANCH_RETURN: 0

LLC TOTAL        ACCESS:     116801 HIT:       2950 MISS:     113851
LLC LOAD         ACCESS:     110912 HIT:          1 MISS:     110911
LLC RFO          ACCESS:       2919 HIT:          0 MISS:       2919
LLC PREFETCH     ACCESS:          0 HIT:          0 MISS:          0
LLC WRITE        ACCESS:       2918 HIT:       2911 MISS:          7
LLC TRANSLATION  ACCESS:         52 HIT:         38 MISS:         14
LLC PREFETCH REQUESTED:          0 ISSUED:          0 USEFUL:          0 USELESS:          0
LLC AVERAGE MISS LATENCY: 978 cycles
cpu0_DTLB TOTAL        ACCESS:    1570324 HIT:    1566222 MISS:       4102
cpu0_DTLB LOAD         ACCESS:    1570324 HIT:    1566222 MISS:       4102
cpu0_DTLB RFO          ACCESS:          0 HIT:          0 MISS:          0
cpu0_DTLB PREFETCH     ACCESS:          0 HIT:          0 MISS:          0
cpu0_DTLB WRITE        ACCESS:          0 HIT:          0 MISS:          0
cpu0_DTLB TRANSLATION  ACCESS:          0 HIT:          0 MISS:          0
cpu0_DTLB PREFETCH REQUESTED:          0 ISSUED:          0 USEFUL:          0 USELESS:          0
cpu0_DTLB AVERAGE MISS LATENCY: 84.02 cycles
cpu0_ITLB TOTAL        ACCESS:          0 HIT:          0 MISS:          0
cpu0_ITLB LOAD         ACCESS:          0 HIT:          0 MISS:          0
cpu0_ITLB RFO          ACCESS:          0 HIT:          0 MISS:          0
cpu0_ITLB PREFETCH     ACCESS:          0 HIT:          0 MISS:          0
cpu0_ITLB WRITE        ACCESS:          0 HIT:          0 MISS:          0
cpu0_ITLB TRANSLATION  ACCESS:          0 HIT:          0 MISS:          0
cpu0_ITLB PREFETCH REQUESTED:          0 ISSUED:          0 USEFUL:          0 USELESS:          0
cpu0_ITLB AVERAGE MISS LATENCY: -nan cycles
cpu0_L1D TOTAL        ACCESS:    1876581 HIT:    1631818 MISS:     244763
cpu0_L1D LOAD         ACCESS:    1734526 HIT:    1500578 MISS:     233948
cpu0_L1D RFO          ACCESS:          0 HIT:          0 MISS:          0
cpu0_L1D PREFETCH     ACCESS:          0 HIT:          0 MISS:          0
cpu0_L1D WRITE        ACCESS:     140327 HIT:     131235 MISS:       9092
cpu0_L1D TRANSLATION  ACCESS:       1728 HIT:          5 MISS:       1723
cpu0_L1D PREFETCH REQUESTED:          0 ISSUED:          0 USEFUL:          0 USELESS:          0
cpu0_L1D AVERAGE MISS LATENCY: 295.7 cycles
cpu0_L1I TOTAL        ACCESS:          0 HIT:          0 MISS:          0
cpu0_L1I LOAD         ACCESS:          0 HIT:          0 MISS:          0
cpu0_L1I RFO          ACCESS:          0 HIT:          0 MISS:          0
cpu0_L1I PREFETCH     ACCESS:          0 HIT:          0 MISS:          0
cpu0_L1I WRITE        ACCESS:          0 HIT:          0 MISS:          0
cpu0_L1I TRANSLATION  ACCESS:          0 HIT:          0 MISS:          0
cpu0_L1I PREFETCH REQUESTED:          0 ISSUED:          0 USEFUL:          0 USELESS:          0
cpu0_L1I AVERAGE MISS LATENCY: -nan cycles
cpu0_L2C TOTAL        ACCESS:     125634 HIT:      11731 MISS:     113903
cpu0_L2C LOAD         ACCESS:     117679 HIT:       6763 MISS:     110916
cpu0_L2C RFO          ACCESS:       3004 HIT:         85 MISS:       2919
cpu0_L2C PREFETCH     ACCESS:          0 HIT:          0 MISS:          0
cpu0_L2C WRITE        ACCESS:       3228 HIT:       3212 MISS:         16
cpu0_L2C TRANSLATION  ACCESS:       1723 HIT:       1671 MISS:         52
cpu0_L2C PREFETCH REQUESTED:          0 ISSUED:          0 USEFUL:          0 USELESS:          0
cpu0_L2C AVERAGE MISS LATENCY: 998.6 cycles
cpu0_STLB TOTAL        ACCESS:       1779 HIT:         54 MISS:       1725
cpu0_STLB LOAD         ACCESS:       1779 HIT:         54 MISS:       1725
cpu0_STLB RFO          ACCESS:          0 HIT:          0 MISS:          0
cpu0_STLB PREFETCH     ACCESS:          0 HIT:          0 MISS:          0
cpu0_STLB WRITE        ACCESS:          0 HIT:          0 MISS:          0
cpu0_STLB TRANSLATION  ACCESS:          0 HIT:          0 MISS:          0
cpu0_STLB PREFETCH REQUESTED:          0 ISSUED:          0 USEFUL:          0 USELESS:          0
cpu0_STLB AVERAGE MISS LATENCY: 259.3 cycles

DRAM Statistics

Channel 0 RQ ROW_BUFFER_HIT:      80301
  ROW_BUFFER_MISS:      33540
 AVG DBUS CONGESTED CYCLE: 3.792
WQ ROW_BUFFER_HIT: Channel 0 
  ROW_BUFFER_MISS:       1562
  FULL:       1406
