WARNING: physical memory size is smaller than virtual memory size.

*** ChampSim Multicore Out-of-Order Simulator ***
Warmup Instructions: 5000000
Simulation Instructions: 5000000
Number of CPUs: 1
Page size: 4096

Off-chip DRAM Size: 4 GiB Channels: 1 Width: 64-bit Data Race: 800 MT/s
Warmup finished CPU 0 instructions: 5000000 cycles: 1250113 cumulative IPC: 4 (Simulation time: 00 hr 00 min 33 sec)
Warmup complete CPU 0 instructions: 5000000 cycles: 1250113 cumulative IPC: 4 (Simulation time: 00 hr 00 min 33 sec)
Heartbeat CPU 0 instructions: 10000003 cycles: 2635623 heartbeat IPC: 3.794 cumulative IPC: 3.609 (Simulation time: 00 hr 01 min 22 sec)
Simulation finished CPU 0 instructions: 5000003 cycles: 1385511 cumulative IPC: 3.609 (Simulation time: 00 hr 01 min 22 sec)
Simulation complete CPU 0 instructions: 5000003 cycles: 1385511 cumulative IPC: 3.609 (Simulation time: 00 hr 01 min 22 sec)

ChampSim completed all CPUs

=== Simulation ===
CPU 0 runs /scratch/cluster/hill/traces/spec2006/hmmer_397B.trace.xz
Region of Interest Statistics

CPU 0 cumulative IPC: 3.609 instructions: 5000003 cycles: 1385511
CPU 0 Branch Prediction Accuracy: 99.13% MPKI: 0.3234 Average ROB Occupancy at Mispredict: 243.6
Branch type MPKI
BRANCH_DIRECT_JUMP: 0
BRANCH_INDIRECT: 0
BRANCH_CONDITIONAL: 0.323
BRANCH_DIRECT_CALL: 0
BRANCH_INDIRECT_CALL: 0
BRANCH_RETURN: 0

LLC TOTAL        ACCESS:      31645 HIT:      16137 MISS:      15508
LLC LOAD         ACCESS:       1043 HIT:        904 MISS:        139
LLC RFO          ACCESS:      15369 HIT:          0 MISS:      15369
LLC PREFETCH     ACCESS:          0 HIT:          0 MISS:          0
LLC WRITE        ACCESS:      15231 HIT:      15231 MISS:          0
LLC TRANSLATION  ACCESS:          2 HIT:          2 MISS:          0
LLC PREFETCH REQUESTED:          0 ISSUED:          0 USEFUL:          0 USELESS:          0
LLC AVERAGE MISS LATENCY: 359.3 cycles
cpu0_DTLB TOTAL        ACCESS:    1225831 HIT:    1224719 MISS:       1112
cpu0_DTLB LOAD         ACCESS:    1225831 HIT:    1224719 MISS:       1112
cpu0_DTLB RFO          ACCESS:          0 HIT:          0 MISS:          0
cpu0_DTLB PREFETCH     ACCESS:          0 HIT:          0 MISS:          0
cpu0_DTLB WRITE        ACCESS:          0 HIT:          0 MISS:          0
cpu0_DTLB TRANSLATION  ACCESS:          0 HIT:          0 MISS:          0
cpu0_DTLB PREFETCH REQUESTED:          0 ISSUED:          0 USEFUL:          0 USELESS:          0
cpu0_DTLB AVERAGE MISS LATENCY: 36.33 cycles
cpu0_ITLB TOTAL        ACCESS:          0 HIT:          0 MISS:          0
cpu0_ITLB LOAD         ACCESS:          0 HIT:          0 MISS:          0
cpu0_ITLB RFO          ACCESS:          0 HIT:          0 MISS:          0
cpu0_ITLB PREFETCH     ACCESS:          0 HIT:          0 MISS:          0
cpu0_ITLB WRITE        ACCESS:          0 HIT:          0 MISS:          0
cpu0_ITLB TRANSLATION  ACCESS:          0 HIT:          0 MISS:          0
cpu0_ITLB PREFETCH REQUESTED:          0 ISSUED:          0 USEFUL:          0 USELESS:          0
cpu0_ITLB AVERAGE MISS LATENCY: -nan cycles
cpu0_L1D TOTAL        ACCESS:    1746183 HIT:    1046116 MISS:     700067
cpu0_L1D LOAD         ACCESS:     959748 HIT:     946642 MISS:      13106
cpu0_L1D RFO          ACCESS:          0 HIT:          0 MISS:          0
cpu0_L1D PREFETCH     ACCESS:          0 HIT:          0 MISS:          0
cpu0_L1D WRITE        ACCESS:     786192 HIT:      99434 MISS:     686758
cpu0_L1D TRANSLATION  ACCESS:        243 HIT:         40 MISS:        203
cpu0_L1D PREFETCH REQUESTED:          0 ISSUED:          0 USEFUL:          0 USELESS:          0
cpu0_L1D AVERAGE MISS LATENCY: 4.241 cycles
cpu0_L1I TOTAL        ACCESS:          0 HIT:          0 MISS:          0
cpu0_L1I LOAD         ACCESS:          0 HIT:          0 MISS:          0
cpu0_L1I RFO          ACCESS:          0 HIT:          0 MISS:          0
cpu0_L1I PREFETCH     ACCESS:          0 HIT:          0 MISS:          0
cpu0_L1I WRITE        ACCESS:          0 HIT:          0 MISS:          0
cpu0_L1I TRANSLATION  ACCESS:          0 HIT:          0 MISS:          0
cpu0_L1I PREFETCH REQUESTED:          0 ISSUED:          0 USEFUL:          0 USELESS:          0
cpu0_L1I AVERAGE MISS LATENCY: -nan cycles
cpu0_L2C TOTAL        ACCESS:      42049 HIT:      25635 MISS:      16414
cpu0_L2C LOAD         ACCESS:      11151 HIT:      10108 MISS:       1043
cpu0_L2C RFO          ACCESS:      15369 HIT:          0 MISS:      15369
cpu0_L2C PREFETCH     ACCESS:          0 HIT:          0 MISS:          0
cpu0_L2C WRITE        ACCESS:      15326 HIT:      15326 MISS:          0
cpu0_L2C TRANSLATION  ACCESS:        203 HIT:        201 MISS:          2
cpu0_L2C PREFETCH REQUESTED:          0 ISSUED:          0 USEFUL:          0 USELESS:          0
cpu0_L2C AVERAGE MISS LATENCY: 360.4 cycles
cpu0_STLB TOTAL        ACCESS:        258 HIT:         15 MISS:        243
cpu0_STLB LOAD         ACCESS:        258 HIT:         15 MISS:        243
cpu0_STLB RFO          ACCESS:          0 HIT:          0 MISS:          0
cpu0_STLB PREFETCH     ACCESS:          0 HIT:          0 MISS:          0
cpu0_STLB WRITE        ACCESS:          0 HIT:          0 MISS:          0
cpu0_STLB TRANSLATION  ACCESS:          0 HIT:          0 MISS:          0
cpu0_STLB PREFETCH REQUESTED:          0 ISSUED:          0 USEFUL:          0 USELESS:          0
cpu0_STLB AVERAGE MISS LATENCY: 215.7 cycles

DRAM Statistics

Channel 0 RQ ROW_BUFFER_HIT:      13948
  ROW_BUFFER_MISS:       1545
 AVG DBUS CONGESTED CYCLE: 3.975
WQ ROW_BUFFER_HIT: Channel 0 
  ROW_BUFFER_MISS:         13
  FULL:         55
