WARNING: physical memory size is smaller than virtual memory size.

*** ChampSim Multicore Out-of-Order Simulator ***
Warmup Instructions: 5000000
Simulation Instructions: 5000000
Number of CPUs: 1
Page size: 4096

helo
Off-chip DRAM Size: 4 GiB Channels: 1 Width: 64-bit Data Race: 800 MT/s
Warmup finished CPU 0 instructions: 5000002 cycles: 1250098 cumulative IPC: 4 (Simulation time: 00 hr 00 min 16 sec)
Warmup complete CPU 0 instructions: 5000002 cycles: 1250098 cumulative IPC: 4 (Simulation time: 00 hr 00 min 16 sec)
Heartbeat CPU 0 instructions: 10000001 cycles: 5066614 heartbeat IPC: 1.974 cumulative IPC: 1.31 (Simulation time: 00 hr 00 min 46 sec)
Simulation finished CPU 0 instructions: 5000003 cycles: 3816518 cumulative IPC: 1.31 (Simulation time: 00 hr 00 min 46 sec)
Simulation complete CPU 0 instructions: 5000003 cycles: 3816518 cumulative IPC: 1.31 (Simulation time: 00 hr 00 min 46 sec)

ChampSim completed all CPUs

=== Simulation ===
CPU 0 runs /scratch/cluster/hill/traces/spec2006/tonto_422B.trace.xz
Region of Interest Statistics

CPU 0 cumulative IPC: 1.31 instructions: 5000003 cycles: 3816518
CPU 0 Branch Prediction Accuracy: 61.71% MPKI: 37.2 Average ROB Occupancy at Mispredict: 20.36
Branch type MPKI
BRANCH_DIRECT_JUMP: 0.004
BRANCH_INDIRECT: 0
BRANCH_CONDITIONAL: 36
BRANCH_DIRECT_CALL: 0.0054
BRANCH_INDIRECT_CALL: 0
BRANCH_RETURN: 1.21

LLC TOTAL        ACCESS:      53304 HIT:      51345 MISS:       1959
LLC LOAD         ACCESS:      25477 HIT:      24266 MISS:       1211
LLC RFO          ACCESS:      13826 HIT:      13096 MISS:        730
LLC PREFETCH     ACCESS:          0 HIT:          0 MISS:          0
LLC WRITE        ACCESS:      13979 HIT:      13979 MISS:          0
LLC TRANSLATION  ACCESS:         22 HIT:          4 MISS:         18
LLC PREFETCH REQUESTED:          0 ISSUED:          0 USEFUL:          0 USELESS:          0
LLC AVERAGE MISS LATENCY: 169.4 cycles
cpu0_DTLB TOTAL        ACCESS:     778811 HIT:     777254 MISS:       1557
cpu0_DTLB LOAD         ACCESS:     778811 HIT:     777254 MISS:       1557
cpu0_DTLB RFO          ACCESS:          0 HIT:          0 MISS:          0
cpu0_DTLB PREFETCH     ACCESS:          0 HIT:          0 MISS:          0
cpu0_DTLB WRITE        ACCESS:          0 HIT:          0 MISS:          0
cpu0_DTLB TRANSLATION  ACCESS:          0 HIT:          0 MISS:          0
cpu0_DTLB PREFETCH REQUESTED:          0 ISSUED:          0 USEFUL:          0 USELESS:          0
cpu0_DTLB AVERAGE MISS LATENCY: 10.6 cycles
cpu0_ITLB TOTAL        ACCESS:     190488 HIT:     190468 MISS:         20
cpu0_ITLB LOAD         ACCESS:     190488 HIT:     190468 MISS:         20
cpu0_ITLB RFO          ACCESS:          0 HIT:          0 MISS:          0
cpu0_ITLB PREFETCH     ACCESS:          0 HIT:          0 MISS:          0
cpu0_ITLB WRITE        ACCESS:          0 HIT:          0 MISS:          0
cpu0_ITLB TRANSLATION  ACCESS:          0 HIT:          0 MISS:          0
cpu0_ITLB PREFETCH REQUESTED:          0 ISSUED:          0 USEFUL:          0 USELESS:          0
cpu0_ITLB AVERAGE MISS LATENCY: 269.9 cycles
cpu0_L1D TOTAL        ACCESS:     956622 HIT:     850850 MISS:     105772
cpu0_L1D LOAD         ACCESS:     568585 HIT:     501543 MISS:      67042
cpu0_L1D RFO          ACCESS:          0 HIT:          0 MISS:          0
cpu0_L1D PREFETCH     ACCESS:          0 HIT:          0 MISS:          0
cpu0_L1D WRITE        ACCESS:     387986 HIT:     349284 MISS:      38702
cpu0_L1D TRANSLATION  ACCESS:         51 HIT:         23 MISS:         28
cpu0_L1D PREFETCH REQUESTED:          0 ISSUED:          0 USEFUL:          0 USELESS:          0
cpu0_L1D AVERAGE MISS LATENCY: 9.895 cycles
cpu0_L1I TOTAL        ACCESS:     244625 HIT:     244496 MISS:        129
cpu0_L1I LOAD         ACCESS:     244625 HIT:     244496 MISS:        129
cpu0_L1I RFO          ACCESS:          0 HIT:          0 MISS:          0
cpu0_L1I PREFETCH     ACCESS:          0 HIT:          0 MISS:          0
cpu0_L1I WRITE        ACCESS:          0 HIT:          0 MISS:          0
cpu0_L1I TRANSLATION  ACCESS:          0 HIT:          0 MISS:          0
cpu0_L1I PREFETCH REQUESTED:          0 ISSUED:          0 USEFUL:          0 USELESS:          0
cpu0_L1I AVERAGE MISS LATENCY: 162.5 cycles
cpu0_L2C TOTAL        ACCESS:      59917 HIT:      20587 MISS:      39330
cpu0_L2C LOAD         ACCESS:      29524 HIT:       4047 MISS:      25477
cpu0_L2C RFO          ACCESS:      14613 HIT:        787 MISS:      13826
cpu0_L2C PREFETCH     ACCESS:          0 HIT:          0 MISS:          0
cpu0_L2C WRITE        ACCESS:      15752 HIT:      15747 MISS:          5
cpu0_L2C TRANSLATION  ACCESS:         28 HIT:          6 MISS:         22
cpu0_L2C PREFETCH REQUESTED:          0 ISSUED:          0 USEFUL:          0 USELESS:          0
cpu0_L2C AVERAGE MISS LATENCY: 28.49 cycles
cpu0_STLB TOTAL        ACCESS:       1093 HIT:       1043 MISS:         50
cpu0_STLB LOAD         ACCESS:       1093 HIT:       1043 MISS:         50
cpu0_STLB RFO          ACCESS:          0 HIT:          0 MISS:          0
cpu0_STLB PREFETCH     ACCESS:          0 HIT:          0 MISS:          0
cpu0_STLB WRITE        ACCESS:          0 HIT:          0 MISS:          0
cpu0_STLB TRANSLATION  ACCESS:          0 HIT:          0 MISS:          0
cpu0_STLB PREFETCH REQUESTED:          0 ISSUED:          0 USEFUL:          0 USELESS:          0
cpu0_STLB AVERAGE MISS LATENCY: 309.3 cycles

DRAM Statistics

Channel 0 RQ ROW_BUFFER_HIT:       1774
  ROW_BUFFER_MISS:        185
 AVG DBUS CONGESTED CYCLE: 3.936
WQ ROW_BUFFER_HIT: Channel 0 
  ROW_BUFFER_MISS:          0
  FULL:          0
