WARNING: physical memory size is smaller than virtual memory size.

*** ChampSim Multicore Out-of-Order Simulator ***
Warmup Instructions: 5000000
Simulation Instructions: 5000000
Number of CPUs: 1
Page size: 4096

helo
Off-chip DRAM Size: 4 GiB Channels: 1 Width: 64-bit Data Race: 800 MT/s
Warmup finished CPU 0 instructions: 5000003 cycles: 1250088 cumulative IPC: 4 (Simulation time: 00 hr 00 min 19 sec)
Warmup complete CPU 0 instructions: 5000003 cycles: 1250088 cumulative IPC: 4 (Simulation time: 00 hr 00 min 19 sec)
Heartbeat CPU 0 instructions: 10000000 cycles: 6393000 heartbeat IPC: 1.564 cumulative IPC: 0.9722 (Simulation time: 00 hr 00 min 58 sec)
Simulation finished CPU 0 instructions: 5000001 cycles: 5142922 cumulative IPC: 0.9722 (Simulation time: 00 hr 00 min 58 sec)
Simulation complete CPU 0 instructions: 5000001 cycles: 5142922 cumulative IPC: 0.9722 (Simulation time: 00 hr 00 min 58 sec)

ChampSim completed all CPUs

=== Simulation ===
CPU 0 runs /scratch/cluster/hill/traces/spec2006/gcc_39B.trace.xz
Region of Interest Statistics

CPU 0 cumulative IPC: 0.9722 instructions: 5000001 cycles: 5142922
CPU 0 Branch Prediction Accuracy: 74.35% MPKI: 58.84 Average ROB Occupancy at Mispredict: 8.531
Branch type MPKI
BRANCH_DIRECT_JUMP: 0.0064
BRANCH_INDIRECT: 0.0012
BRANCH_CONDITIONAL: 58.8
BRANCH_DIRECT_CALL: 0.0002
BRANCH_INDIRECT_CALL: 0.001
BRANCH_RETURN: 0.0024

LLC TOTAL        ACCESS:       1354 HIT:         50 MISS:       1304
LLC LOAD         ACCESS:       1065 HIT:          0 MISS:       1065
LLC RFO          ACCESS:        151 HIT:          0 MISS:        151
LLC PREFETCH     ACCESS:          0 HIT:          0 MISS:          0
LLC WRITE        ACCESS:         50 HIT:         50 MISS:          0
LLC TRANSLATION  ACCESS:         88 HIT:          0 MISS:         88
LLC PREFETCH REQUESTED:          0 ISSUED:          0 USEFUL:          0 USELESS:          0
LLC AVERAGE MISS LATENCY: 204.3 cycles
cpu0_DTLB TOTAL        ACCESS:    1357095 HIT:    1355930 MISS:       1165
cpu0_DTLB LOAD         ACCESS:    1357095 HIT:    1355930 MISS:       1165
cpu0_DTLB RFO          ACCESS:          0 HIT:          0 MISS:          0
cpu0_DTLB PREFETCH     ACCESS:          0 HIT:          0 MISS:          0
cpu0_DTLB WRITE        ACCESS:          0 HIT:          0 MISS:          0
cpu0_DTLB TRANSLATION  ACCESS:          0 HIT:          0 MISS:          0
cpu0_DTLB PREFETCH REQUESTED:          0 ISSUED:          0 USEFUL:          0 USELESS:          0
cpu0_DTLB AVERAGE MISS LATENCY: 55.56 cycles
cpu0_ITLB TOTAL        ACCESS:        309 HIT:        309 MISS:          0
cpu0_ITLB LOAD         ACCESS:        309 HIT:        309 MISS:          0
cpu0_ITLB RFO          ACCESS:          0 HIT:          0 MISS:          0
cpu0_ITLB PREFETCH     ACCESS:          0 HIT:          0 MISS:          0
cpu0_ITLB WRITE        ACCESS:          0 HIT:          0 MISS:          0
cpu0_ITLB TRANSLATION  ACCESS:          0 HIT:          0 MISS:          0
cpu0_ITLB PREFETCH REQUESTED:          0 ISSUED:          0 USEFUL:          0 USELESS:          0
cpu0_ITLB AVERAGE MISS LATENCY: -nan cycles
cpu0_L1D TOTAL        ACCESS:    1674639 HIT:    1623883 MISS:      50756
cpu0_L1D LOAD         ACCESS:     788693 HIT:     738850 MISS:      49843
cpu0_L1D RFO          ACCESS:          0 HIT:          0 MISS:          0
cpu0_L1D PREFETCH     ACCESS:          0 HIT:          0 MISS:          0
cpu0_L1D WRITE        ACCESS:     885799 HIT:     885031 MISS:        768
cpu0_L1D TRANSLATION  ACCESS:        147 HIT:          2 MISS:        145
cpu0_L1D PREFETCH REQUESTED:          0 ISSUED:          0 USEFUL:          0 USELESS:          0
cpu0_L1D AVERAGE MISS LATENCY: 14.6 cycles
cpu0_L1I TOTAL        ACCESS:        342 HIT:        342 MISS:          0
cpu0_L1I LOAD         ACCESS:        342 HIT:        342 MISS:          0
cpu0_L1I RFO          ACCESS:          0 HIT:          0 MISS:          0
cpu0_L1I PREFETCH     ACCESS:          0 HIT:          0 MISS:          0
cpu0_L1I WRITE        ACCESS:          0 HIT:          0 MISS:          0
cpu0_L1I TRANSLATION  ACCESS:          0 HIT:          0 MISS:          0
cpu0_L1I PREFETCH REQUESTED:          0 ISSUED:          0 USEFUL:          0 USELESS:          0
cpu0_L1I AVERAGE MISS LATENCY: -nan cycles
cpu0_L2C TOTAL        ACCESS:      47975 HIT:      46671 MISS:       1304
cpu0_L2C LOAD         ACCESS:      46408 HIT:      45343 MISS:       1065
cpu0_L2C RFO          ACCESS:        220 HIT:         69 MISS:        151
cpu0_L2C PREFETCH     ACCESS:          0 HIT:          0 MISS:          0
cpu0_L2C WRITE        ACCESS:       1202 HIT:       1202 MISS:          0
cpu0_L2C TRANSLATION  ACCESS:        145 HIT:         57 MISS:         88
cpu0_L2C PREFETCH REQUESTED:          0 ISSUED:          0 USEFUL:          0 USELESS:          0
cpu0_L2C AVERAGE MISS LATENCY: 225.3 cycles
cpu0_STLB TOTAL        ACCESS:       1127 HIT:        980 MISS:        147
cpu0_STLB LOAD         ACCESS:       1127 HIT:        980 MISS:        147
cpu0_STLB RFO          ACCESS:          0 HIT:          0 MISS:          0
cpu0_STLB PREFETCH     ACCESS:          0 HIT:          0 MISS:          0
cpu0_STLB WRITE        ACCESS:          0 HIT:          0 MISS:          0
cpu0_STLB TRANSLATION  ACCESS:          0 HIT:          0 MISS:          0
cpu0_STLB PREFETCH REQUESTED:          0 ISSUED:          0 USEFUL:          0 USELESS:          0
cpu0_STLB AVERAGE MISS LATENCY: 382.6 cycles

DRAM Statistics

Channel 0 RQ ROW_BUFFER_HIT:        214
  ROW_BUFFER_MISS:       1090
 AVG DBUS CONGESTED CYCLE: 3.697
WQ ROW_BUFFER_HIT: Channel 0 
  ROW_BUFFER_MISS:          0
  FULL:          0
