WARNING: physical memory size is smaller than virtual memory size.

*** ChampSim Multicore Out-of-Order Simulator ***
Warmup Instructions: 5000000
Simulation Instructions: 5000000
Number of CPUs: 1
Page size: 4096

Off-chip DRAM Size: 4 GiB Channels: 1 Width: 64-bit Data Race: 800 MT/s
Warmup finished CPU 0 instructions: 5000003 cycles: 1323654 cumulative IPC: 3.777 (Simulation time: 00 hr 00 min 23 sec)
Warmup complete CPU 0 instructions: 5000003 cycles: 1323654 cumulative IPC: 3.777 (Simulation time: 00 hr 00 min 23 sec)
Heartbeat CPU 0 instructions: 10000003 cycles: 12238851 heartbeat IPC: 0.8171 cumulative IPC: 0.4581 (Simulation time: 00 hr 02 min 10 sec)
Simulation finished CPU 0 instructions: 5000000 cycles: 10915198 cumulative IPC: 0.4581 (Simulation time: 00 hr 02 min 10 sec)
Simulation complete CPU 0 instructions: 5000000 cycles: 10915198 cumulative IPC: 0.4581 (Simulation time: 00 hr 02 min 10 sec)

ChampSim completed all CPUs

=== Simulation ===
CPU 0 runs /scratch/cluster/hill/traces/spec2006/leslie3d_94B.trace.xz
Region of Interest Statistics

CPU 0 cumulative IPC: 0.4581 instructions: 5000000 cycles: 10915198
CPU 0 Branch Prediction Accuracy: 98.22% MPKI: 0.7266 Average ROB Occupancy at Mispredict: 337
Branch type MPKI
BRANCH_DIRECT_JUMP: 0
BRANCH_INDIRECT: 0
BRANCH_CONDITIONAL: 0.727
BRANCH_DIRECT_CALL: 0
BRANCH_INDIRECT_CALL: 0
BRANCH_RETURN: 0

LLC TOTAL        ACCESS:     134184 HIT:      34019 MISS:     100165
LLC LOAD         ACCESS:      95765 HIT:       3641 MISS:      92124
LLC RFO          ACCESS:      14356 HIT:       6570 MISS:       7786
LLC PREFETCH     ACCESS:          0 HIT:          0 MISS:          0
LLC WRITE        ACCESS:      23849 HIT:      23627 MISS:        222
LLC TRANSLATION  ACCESS:        214 HIT:        181 MISS:         33
LLC PREFETCH REQUESTED:          0 ISSUED:          0 USEFUL:          0 USELESS:          0
LLC AVERAGE MISS LATENCY: 1070 cycles
cpu0_DTLB TOTAL        ACCESS:    1439554 HIT:    1430722 MISS:       8832
cpu0_DTLB LOAD         ACCESS:    1439554 HIT:    1430722 MISS:       8832
cpu0_DTLB RFO          ACCESS:          0 HIT:          0 MISS:          0
cpu0_DTLB PREFETCH     ACCESS:          0 HIT:          0 MISS:          0
cpu0_DTLB WRITE        ACCESS:          0 HIT:          0 MISS:          0
cpu0_DTLB TRANSLATION  ACCESS:          0 HIT:          0 MISS:          0
cpu0_DTLB PREFETCH REQUESTED:          0 ISSUED:          0 USEFUL:          0 USELESS:          0
cpu0_DTLB AVERAGE MISS LATENCY: 15.41 cycles
cpu0_ITLB TOTAL        ACCESS:      46971 HIT:      46971 MISS:          0
cpu0_ITLB LOAD         ACCESS:      46971 HIT:      46971 MISS:          0
cpu0_ITLB RFO          ACCESS:          0 HIT:          0 MISS:          0
cpu0_ITLB PREFETCH     ACCESS:          0 HIT:          0 MISS:          0
cpu0_ITLB WRITE        ACCESS:          0 HIT:          0 MISS:          0
cpu0_ITLB TRANSLATION  ACCESS:          0 HIT:          0 MISS:          0
cpu0_ITLB PREFETCH REQUESTED:          0 ISSUED:          0 USEFUL:          0 USELESS:          0
cpu0_ITLB AVERAGE MISS LATENCY: -nan cycles
cpu0_L1D TOTAL        ACCESS:    1976894 HIT:    1387294 MISS:     589600
cpu0_L1D LOAD         ACCESS:    1344350 HIT:     900547 MISS:     443803
cpu0_L1D RFO          ACCESS:          0 HIT:          0 MISS:          0
cpu0_L1D PREFETCH     ACCESS:          0 HIT:          0 MISS:          0
cpu0_L1D WRITE        ACCESS:     631731 HIT:     486605 MISS:     145126
cpu0_L1D TRANSLATION  ACCESS:        813 HIT:        142 MISS:        671
cpu0_L1D PREFETCH REQUESTED:          0 ISSUED:          0 USEFUL:          0 USELESS:          0
cpu0_L1D AVERAGE MISS LATENCY: 125.1 cycles
cpu0_L1I TOTAL        ACCESS:      63237 HIT:      63237 MISS:          0
cpu0_L1I LOAD         ACCESS:      63237 HIT:      63237 MISS:          0
cpu0_L1I RFO          ACCESS:          0 HIT:          0 MISS:          0
cpu0_L1I PREFETCH     ACCESS:          0 HIT:          0 MISS:          0
cpu0_L1I WRITE        ACCESS:          0 HIT:          0 MISS:          0
cpu0_L1I TRANSLATION  ACCESS:          0 HIT:          0 MISS:          0
cpu0_L1I PREFETCH REQUESTED:          0 ISSUED:          0 USEFUL:          0 USELESS:          0
cpu0_L1I AVERAGE MISS LATENCY: -nan cycles
cpu0_L2C TOTAL        ACCESS:     246907 HIT:     136557 MISS:     110350
cpu0_L2C LOAD         ACCESS:     150375 HIT:      54610 MISS:      95765
cpu0_L2C RFO          ACCESS:      37654 HIT:      23298 MISS:      14356
cpu0_L2C PREFETCH     ACCESS:          0 HIT:          0 MISS:          0
cpu0_L2C WRITE        ACCESS:      58207 HIT:      58192 MISS:         15
cpu0_L2C TRANSLATION  ACCESS:        671 HIT:        457 MISS:        214
cpu0_L2C PREFETCH REQUESTED:          0 ISSUED:          0 USEFUL:          0 USELESS:          0
cpu0_L2C AVERAGE MISS LATENCY: 992.2 cycles
cpu0_STLB TOTAL        ACCESS:       2656 HIT:       1844 MISS:        812
cpu0_STLB LOAD         ACCESS:       2656 HIT:       1844 MISS:        812
cpu0_STLB RFO          ACCESS:          0 HIT:          0 MISS:          0
cpu0_STLB PREFETCH     ACCESS:          0 HIT:          0 MISS:          0
cpu0_STLB WRITE        ACCESS:          0 HIT:          0 MISS:          0
cpu0_STLB TRANSLATION  ACCESS:          0 HIT:          0 MISS:          0
cpu0_STLB PREFETCH REQUESTED:          0 ISSUED:          0 USEFUL:          0 USELESS:          0
cpu0_STLB AVERAGE MISS LATENCY: 289.7 cycles

DRAM Statistics

Channel 0 RQ ROW_BUFFER_HIT:      44556
  ROW_BUFFER_MISS:      55292
 AVG DBUS CONGESTED CYCLE: 3.939
WQ ROW_BUFFER_HIT: Channel 0 
  ROW_BUFFER_MISS:       3884
  FULL:      29183
