WARNING: physical memory size is smaller than virtual memory size.

*** ChampSim Multicore Out-of-Order Simulator ***
Warmup Instructions: 10000000
Simulation Instructions: 10000000
Number of CPUs: 1
Page size: 4096

helo
Off-chip DRAM Size: 4 GiB Channels: 1 Width: 64-bit Data Race: 800 MT/s
Heartbeat CPU 0 instructions: 10000000 cycles: 2513841 heartbeat IPC: 3.978 cumulative IPC: 3.978 (Simulation time: 00 hr 00 min 42 sec)
Warmup finished CPU 0 instructions: 10000000 cycles: 2513842 cumulative IPC: 3.978 (Simulation time: 00 hr 00 min 42 sec)
Warmup complete CPU 0 instructions: 10000000 cycles: 2513842 cumulative IPC: 3.978 (Simulation time: 00 hr 00 min 42 sec)
Heartbeat CPU 0 instructions: 20000000 cycles: 45765981 heartbeat IPC: 0.2312 cumulative IPC: 0.2312 (Simulation time: 00 hr 04 min 42 sec)
Simulation finished CPU 0 instructions: 10000000 cycles: 43252140 cumulative IPC: 0.2312 (Simulation time: 00 hr 04 min 42 sec)
Simulation complete CPU 0 instructions: 10000000 cycles: 43252140 cumulative IPC: 0.2312 (Simulation time: 00 hr 04 min 42 sec)

ChampSim completed all CPUs

=== Simulation ===
CPU 0 runs /scratch/cluster/hill/traces/spec2006/omnetpp_340B.trace.xz
Region of Interest Statistics

CPU 0 cumulative IPC: 0.2312 instructions: 10000000 cycles: 43252140
CPU 0 Branch Prediction Accuracy: 77.93% MPKI: 52.98 Average ROB Occupancy at Mispredict: 13.07
Branch type MPKI
BRANCH_DIRECT_JUMP: 0.0002
BRANCH_INDIRECT: 0.0518
BRANCH_CONDITIONAL: 52.9
BRANCH_DIRECT_CALL: 0.0002
BRANCH_INDIRECT_CALL: 0.0517
BRANCH_RETURN: 0.027

LLC TOTAL        ACCESS:     355459 HIT:     160922 MISS:     194537
LLC LOAD         ACCESS:     196992 HIT:      49411 MISS:     147581
LLC RFO          ACCESS:      31706 HIT:       6574 MISS:      25132
LLC PREFETCH     ACCESS:          0 HIT:          0 MISS:          0
LLC WRITE        ACCESS:      96983 HIT:      96894 MISS:         89
LLC TRANSLATION  ACCESS:      29778 HIT:       8043 MISS:      21735
LLC PREFETCH REQUESTED:          0 ISSUED:          0 USEFUL:          0 USELESS:          0
LLC AVERAGE MISS LATENCY: 226.4 cycles
cpu0_DTLB TOTAL        ACCESS:    3407062 HIT:    3155213 MISS:     251849
cpu0_DTLB LOAD         ACCESS:    3407062 HIT:    3155213 MISS:     251849
cpu0_DTLB RFO          ACCESS:          0 HIT:          0 MISS:          0
cpu0_DTLB PREFETCH     ACCESS:          0 HIT:          0 MISS:          0
cpu0_DTLB WRITE        ACCESS:          0 HIT:          0 MISS:          0
cpu0_DTLB TRANSLATION  ACCESS:          0 HIT:          0 MISS:          0
cpu0_DTLB PREFETCH REQUESTED:          0 ISSUED:          0 USEFUL:          0 USELESS:          0
cpu0_DTLB AVERAGE MISS LATENCY: 34.62 cycles
cpu0_ITLB TOTAL        ACCESS:     415204 HIT:     414640 MISS:        564
cpu0_ITLB LOAD         ACCESS:     415204 HIT:     414640 MISS:        564
cpu0_ITLB RFO          ACCESS:          0 HIT:          0 MISS:          0
cpu0_ITLB PREFETCH     ACCESS:          0 HIT:          0 MISS:          0
cpu0_ITLB WRITE        ACCESS:          0 HIT:          0 MISS:          0
cpu0_ITLB TRANSLATION  ACCESS:          0 HIT:          0 MISS:          0
cpu0_ITLB PREFETCH REQUESTED:          0 ISSUED:          0 USEFUL:          0 USELESS:          0
cpu0_ITLB AVERAGE MISS LATENCY: 47.98 cycles
cpu0_L1D TOTAL        ACCESS:    4078132 HIT:    3547157 MISS:     530975
cpu0_L1D LOAD         ACCESS:    2327580 HIT:    1997215 MISS:     330365
cpu0_L1D RFO          ACCESS:          0 HIT:          0 MISS:          0
cpu0_L1D PREFETCH     ACCESS:          0 HIT:          0 MISS:          0
cpu0_L1D WRITE        ACCESS:    1703840 HIT:    1545893 MISS:     157947
cpu0_L1D TRANSLATION  ACCESS:      46712 HIT:       4049 MISS:      42663
cpu0_L1D PREFETCH REQUESTED:          0 ISSUED:          0 USEFUL:          0 USELESS:          0
cpu0_L1D AVERAGE MISS LATENCY: 96.33 cycles
cpu0_L1I TOTAL        ACCESS:     449994 HIT:     448957 MISS:       1037
cpu0_L1I LOAD         ACCESS:     449994 HIT:     448957 MISS:       1037
cpu0_L1I RFO          ACCESS:          0 HIT:          0 MISS:          0
cpu0_L1I PREFETCH     ACCESS:          0 HIT:          0 MISS:          0
cpu0_L1I WRITE        ACCESS:          0 HIT:          0 MISS:          0
cpu0_L1I TRANSLATION  ACCESS:          0 HIT:          0 MISS:          0
cpu0_L1I PREFETCH REQUESTED:          0 ISSUED:          0 USEFUL:          0 USELESS:          0
cpu0_L1I AVERAGE MISS LATENCY: 73.13 cycles
cpu0_L2C TOTAL        ACCESS:     433426 HIT:     174441 MISS:     258985
cpu0_L2C LOAD         ACCESS:     238468 HIT:      41476 MISS:     196992
cpu0_L2C RFO          ACCESS:      36665 HIT:       4959 MISS:      31706
cpu0_L2C PREFETCH     ACCESS:          0 HIT:          0 MISS:          0
cpu0_L2C WRITE        ACCESS:     115657 HIT:     115148 MISS:        509
cpu0_L2C TRANSLATION  ACCESS:      42636 HIT:      12858 MISS:      29778
cpu0_L2C PREFETCH REQUESTED:          0 ISSUED:          0 USEFUL:          0 USELESS:          0
cpu0_L2C AVERAGE MISS LATENCY: 190.8 cycles
cpu0_STLB TOTAL        ACCESS:     185245 HIT:     140526 MISS:      44719
cpu0_STLB LOAD         ACCESS:     185245 HIT:     140526 MISS:      44719
cpu0_STLB RFO          ACCESS:          0 HIT:          0 MISS:          0
cpu0_STLB PREFETCH     ACCESS:          0 HIT:          0 MISS:          0
cpu0_STLB WRITE        ACCESS:          0 HIT:          0 MISS:          0
cpu0_STLB TRANSLATION  ACCESS:          0 HIT:          0 MISS:          0
cpu0_STLB PREFETCH REQUESTED:          0 ISSUED:          0 USEFUL:          0 USELESS:          0
cpu0_STLB AVERAGE MISS LATENCY: 170.8 cycles

DRAM Statistics

Channel 0 RQ ROW_BUFFER_HIT:      14588
  ROW_BUFFER_MISS:     179827
 AVG DBUS CONGESTED CYCLE: 3.908
WQ ROW_BUFFER_HIT: Channel 0 
  ROW_BUFFER_MISS:      15094
  FULL:      59038
