WARNING: physical memory size is smaller than virtual memory size.

*** ChampSim Multicore Out-of-Order Simulator ***
Warmup Instructions: 10000000
Simulation Instructions: 10000000
Number of CPUs: 1
Page size: 4096

helo
Off-chip DRAM Size: 4 GiB Channels: 1 Width: 64-bit Data Race: 800 MT/s
Heartbeat CPU 0 instructions: 10000001 cycles: 2516701 heartbeat IPC: 3.973 cumulative IPC: 3.973 (Simulation time: 00 hr 00 min 35 sec)
Warmup finished CPU 0 instructions: 10000001 cycles: 2516702 cumulative IPC: 3.973 (Simulation time: 00 hr 00 min 35 sec)
Warmup complete CPU 0 instructions: 10000001 cycles: 2516702 cumulative IPC: 3.973 (Simulation time: 00 hr 00 min 35 sec)
Heartbeat CPU 0 instructions: 20000000 cycles: 33126930 heartbeat IPC: 0.3267 cumulative IPC: 0.3267 (Simulation time: 00 hr 03 min 15 sec)
Simulation finished CPU 0 instructions: 10000000 cycles: 30610232 cumulative IPC: 0.3267 (Simulation time: 00 hr 03 min 15 sec)
Simulation complete CPU 0 instructions: 10000000 cycles: 30610232 cumulative IPC: 0.3267 (Simulation time: 00 hr 03 min 15 sec)

ChampSim completed all CPUs

=== Simulation ===
CPU 0 runs /scratch/cluster/hill/traces/spec2006/omnetpp_4B.trace.xz
Region of Interest Statistics

CPU 0 cumulative IPC: 0.3267 instructions: 10000000 cycles: 30610232
CPU 0 Branch Prediction Accuracy: 77.06% MPKI: 73.49 Average ROB Occupancy at Mispredict: 1.982
Branch type MPKI
BRANCH_DIRECT_JUMP: 0.0195
BRANCH_INDIRECT: 0.121
BRANCH_CONDITIONAL: 73.3
BRANCH_DIRECT_CALL: 0.0287
BRANCH_INDIRECT_CALL: 0.0075
BRANCH_RETURN: 0.0471

LLC TOTAL        ACCESS:     203482 HIT:     130038 MISS:      73444
LLC LOAD         ACCESS:     176990 HIT:     112267 MISS:      64723
LLC RFO          ACCESS:       3656 HIT:       1436 MISS:       2220
LLC PREFETCH     ACCESS:          0 HIT:          0 MISS:          0
LLC WRITE        ACCESS:       6622 HIT:       6622 MISS:          0
LLC TRANSLATION  ACCESS:      16214 HIT:       9713 MISS:       6501
LLC PREFETCH REQUESTED:          0 ISSUED:          0 USEFUL:          0 USELESS:          0
LLC AVERAGE MISS LATENCY: 191.7 cycles
cpu0_DTLB TOTAL        ACCESS:    1365672 HIT:    1263338 MISS:     102334
cpu0_DTLB LOAD         ACCESS:    1365672 HIT:    1263338 MISS:     102334
cpu0_DTLB RFO          ACCESS:          0 HIT:          0 MISS:          0
cpu0_DTLB PREFETCH     ACCESS:          0 HIT:          0 MISS:          0
cpu0_DTLB WRITE        ACCESS:          0 HIT:          0 MISS:          0
cpu0_DTLB TRANSLATION  ACCESS:          0 HIT:          0 MISS:          0
cpu0_DTLB PREFETCH REQUESTED:          0 ISSUED:          0 USEFUL:          0 USELESS:          0
cpu0_DTLB AVERAGE MISS LATENCY: 32.19 cycles
cpu0_ITLB TOTAL        ACCESS:     105247 HIT:     100902 MISS:       4345
cpu0_ITLB LOAD         ACCESS:     105247 HIT:     100902 MISS:       4345
cpu0_ITLB RFO          ACCESS:          0 HIT:          0 MISS:          0
cpu0_ITLB PREFETCH     ACCESS:          0 HIT:          0 MISS:          0
cpu0_ITLB WRITE        ACCESS:          0 HIT:          0 MISS:          0
cpu0_ITLB TRANSLATION  ACCESS:          0 HIT:          0 MISS:          0
cpu0_ITLB PREFETCH REQUESTED:          0 ISSUED:          0 USEFUL:          0 USELESS:          0
cpu0_ITLB AVERAGE MISS LATENCY: 10.28 cycles
cpu0_L1D TOTAL        ACCESS:    1646552 HIT:    1430714 MISS:     215838
cpu0_L1D LOAD         ACCESS:    1045166 HIT:     866025 MISS:     179141
cpu0_L1D RFO          ACCESS:          0 HIT:          0 MISS:          0
cpu0_L1D PREFETCH     ACCESS:          0 HIT:          0 MISS:          0
cpu0_L1D WRITE        ACCESS:     499549 HIT:     479861 MISS:      19688
cpu0_L1D TRANSLATION  ACCESS:     101837 HIT:      84828 MISS:      17009
cpu0_L1D PREFETCH REQUESTED:          0 ISSUED:          0 USEFUL:          0 USELESS:          0
cpu0_L1D AVERAGE MISS LATENCY: 91.43 cycles
cpu0_L1I TOTAL        ACCESS:     115239 HIT:     107329 MISS:       7910
cpu0_L1I LOAD         ACCESS:     115239 HIT:     107329 MISS:       7910
cpu0_L1I RFO          ACCESS:          0 HIT:          0 MISS:          0
cpu0_L1I PREFETCH     ACCESS:          0 HIT:          0 MISS:          0
cpu0_L1I WRITE        ACCESS:          0 HIT:          0 MISS:          0
cpu0_L1I TRANSLATION  ACCESS:          0 HIT:          0 MISS:          0
cpu0_L1I PREFETCH REQUESTED:          0 ISSUED:          0 USEFUL:          0 USELESS:          0
cpu0_L1I AVERAGE MISS LATENCY: 54.17 cycles
cpu0_L2C TOTAL        ACCESS:     210208 HIT:      13345 MISS:     196863
cpu0_L2C LOAD         ACCESS:     181790 HIT:       4800 MISS:     176990
cpu0_L2C RFO          ACCESS:       4083 HIT:        427 MISS:       3656
cpu0_L2C PREFETCH     ACCESS:          0 HIT:          0 MISS:          0
cpu0_L2C WRITE        ACCESS:       7326 HIT:       7323 MISS:          3
cpu0_L2C TRANSLATION  ACCESS:      17009 HIT:        795 MISS:      16214
cpu0_L2C PREFETCH REQUESTED:          0 ISSUED:          0 USEFUL:          0 USELESS:          0
cpu0_L2C AVERAGE MISS LATENCY: 91.9 cycles
cpu0_STLB TOTAL        ACCESS:     103835 HIT:       2273 MISS:     101562
cpu0_STLB LOAD         ACCESS:     103835 HIT:       2273 MISS:     101562
cpu0_STLB RFO          ACCESS:          0 HIT:          0 MISS:          0
cpu0_STLB PREFETCH     ACCESS:          0 HIT:          0 MISS:          0
cpu0_STLB WRITE        ACCESS:          0 HIT:          0 MISS:          0
cpu0_STLB TRANSLATION  ACCESS:          0 HIT:          0 MISS:          0
cpu0_STLB PREFETCH REQUESTED:          0 ISSUED:          0 USEFUL:          0 USELESS:          0
cpu0_STLB AVERAGE MISS LATENCY: 23.82 cycles

DRAM Statistics

Channel 0 RQ ROW_BUFFER_HIT:      22759
  ROW_BUFFER_MISS:      50686
 AVG DBUS CONGESTED CYCLE: 3.833
WQ ROW_BUFFER_HIT: Channel 0 
  ROW_BUFFER_MISS:       1735
  FULL:       2290
