WARNING: physical memory size is smaller than virtual memory size.

*** ChampSim Multicore Out-of-Order Simulator ***
Warmup Instructions: 10000000
Simulation Instructions: 10000000
Number of CPUs: 1
Page size: 4096

helo
Off-chip DRAM Size: 4 GiB Channels: 1 Width: 64-bit Data Race: 800 MT/s
Heartbeat CPU 0 instructions: 10000000 cycles: 2502211 heartbeat IPC: 3.996 cumulative IPC: 3.996 (Simulation time: 00 hr 00 min 42 sec)
Warmup finished CPU 0 instructions: 10000000 cycles: 2502212 cumulative IPC: 3.996 (Simulation time: 00 hr 00 min 42 sec)
Warmup complete CPU 0 instructions: 10000000 cycles: 2502212 cumulative IPC: 3.996 (Simulation time: 00 hr 00 min 42 sec)
Heartbeat CPU 0 instructions: 20000001 cycles: 22888263 heartbeat IPC: 0.4905 cumulative IPC: 0.4905 (Simulation time: 00 hr 02 min 41 sec)
Simulation finished CPU 0 instructions: 10000001 cycles: 20386052 cumulative IPC: 0.4905 (Simulation time: 00 hr 02 min 41 sec)
Simulation complete CPU 0 instructions: 10000001 cycles: 20386052 cumulative IPC: 0.4905 (Simulation time: 00 hr 02 min 41 sec)

ChampSim completed all CPUs

=== Simulation ===
CPU 0 runs /scratch/cluster/hill/traces/spec2006/xalancbmk_768B.trace.xz
Region of Interest Statistics

CPU 0 cumulative IPC: 0.4905 instructions: 10000001 cycles: 20386052
CPU 0 Branch Prediction Accuracy: 77.97% MPKI: 83.18 Average ROB Occupancy at Mispredict: 0.0853
Branch type MPKI
BRANCH_DIRECT_JUMP: 0.0003
BRANCH_INDIRECT: 0.0008
BRANCH_CONDITIONAL: 83.1
BRANCH_DIRECT_CALL: 0.0003
BRANCH_INDIRECT_CALL: 0.0008
BRANCH_RETURN: 0.0664

LLC TOTAL        ACCESS:      31622 HIT:      30973 MISS:        649
LLC LOAD         ACCESS:      28131 HIT:      27710 MISS:        421
LLC RFO          ACCESS:        232 HIT:        199 MISS:         33
LLC PREFETCH     ACCESS:          0 HIT:          0 MISS:          0
LLC WRITE        ACCESS:       1817 HIT:       1817 MISS:          0
LLC TRANSLATION  ACCESS:       1442 HIT:       1247 MISS:        195
LLC PREFETCH REQUESTED:          0 ISSUED:          0 USEFUL:          0 USELESS:          0
LLC AVERAGE MISS LATENCY: 207 cycles
cpu0_DTLB TOTAL        ACCESS:    2517724 HIT:    2355682 MISS:     162042
cpu0_DTLB LOAD         ACCESS:    2517724 HIT:    2355682 MISS:     162042
cpu0_DTLB RFO          ACCESS:          0 HIT:          0 MISS:          0
cpu0_DTLB PREFETCH     ACCESS:          0 HIT:          0 MISS:          0
cpu0_DTLB WRITE        ACCESS:          0 HIT:          0 MISS:          0
cpu0_DTLB TRANSLATION  ACCESS:          0 HIT:          0 MISS:          0
cpu0_DTLB PREFETCH REQUESTED:          0 ISSUED:          0 USEFUL:          0 USELESS:          0
cpu0_DTLB AVERAGE MISS LATENCY: 4.352 cycles
cpu0_ITLB TOTAL        ACCESS:       2022 HIT:       2022 MISS:          0
cpu0_ITLB LOAD         ACCESS:       2022 HIT:       2022 MISS:          0
cpu0_ITLB RFO          ACCESS:          0 HIT:          0 MISS:          0
cpu0_ITLB PREFETCH     ACCESS:          0 HIT:          0 MISS:          0
cpu0_ITLB WRITE        ACCESS:          0 HIT:          0 MISS:          0
cpu0_ITLB TRANSLATION  ACCESS:          0 HIT:          0 MISS:          0
cpu0_ITLB PREFETCH REQUESTED:          0 ISSUED:          0 USEFUL:          0 USELESS:          0
cpu0_ITLB AVERAGE MISS LATENCY: -nan cycles
cpu0_L1D TOTAL        ACCESS:    2538933 HIT:    1671608 MISS:     867325
cpu0_L1D LOAD         ACCESS:    2428618 HIT:    1571989 MISS:     856629
cpu0_L1D RFO          ACCESS:          0 HIT:          0 MISS:          0
cpu0_L1D PREFETCH     ACCESS:          0 HIT:          0 MISS:          0
cpu0_L1D WRITE        ACCESS:     103082 HIT:      98775 MISS:       4307
cpu0_L1D TRANSLATION  ACCESS:       7233 HIT:        844 MISS:       6389
cpu0_L1D PREFETCH REQUESTED:          0 ISSUED:          0 USEFUL:          0 USELESS:          0
cpu0_L1D AVERAGE MISS LATENCY: 6.087 cycles
cpu0_L1I TOTAL        ACCESS:       2024 HIT:       2010 MISS:         14
cpu0_L1I LOAD         ACCESS:       2024 HIT:       2010 MISS:         14
cpu0_L1I RFO          ACCESS:          0 HIT:          0 MISS:          0
cpu0_L1I PREFETCH     ACCESS:          0 HIT:          0 MISS:          0
cpu0_L1I WRITE        ACCESS:          0 HIT:          0 MISS:          0
cpu0_L1I TRANSLATION  ACCESS:          0 HIT:          0 MISS:          0
cpu0_L1I PREFETCH REQUESTED:          0 ISSUED:          0 USEFUL:          0 USELESS:          0
cpu0_L1I AVERAGE MISS LATENCY: 217.8 cycles
cpu0_L2C TOTAL        ACCESS:     489117 HIT:     459310 MISS:      29807
cpu0_L2C LOAD         ACCESS:     475046 HIT:     446915 MISS:      28131
cpu0_L2C RFO          ACCESS:       1720 HIT:       1488 MISS:        232
cpu0_L2C PREFETCH     ACCESS:          0 HIT:          0 MISS:          0
cpu0_L2C WRITE        ACCESS:       5962 HIT:       5960 MISS:          2
cpu0_L2C TRANSLATION  ACCESS:       6389 HIT:       4947 MISS:       1442
cpu0_L2C PREFETCH REQUESTED:          0 ISSUED:          0 USEFUL:          0 USELESS:          0
cpu0_L2C AVERAGE MISS LATENCY: 24.53 cycles
cpu0_STLB TOTAL        ACCESS:      82845 HIT:      77829 MISS:       5016
cpu0_STLB LOAD         ACCESS:      82845 HIT:      77829 MISS:       5016
cpu0_STLB RFO          ACCESS:          0 HIT:          0 MISS:          0
cpu0_STLB PREFETCH     ACCESS:          0 HIT:          0 MISS:          0
cpu0_STLB WRITE        ACCESS:          0 HIT:          0 MISS:          0
cpu0_STLB TRANSLATION  ACCESS:          0 HIT:          0 MISS:          0
cpu0_STLB PREFETCH REQUESTED:          0 ISSUED:          0 USEFUL:          0 USELESS:          0
cpu0_STLB AVERAGE MISS LATENCY: 40.1 cycles

DRAM Statistics

Channel 0 RQ ROW_BUFFER_HIT:         21
  ROW_BUFFER_MISS:        628
 AVG DBUS CONGESTED CYCLE: 3.915
WQ ROW_BUFFER_HIT: Channel 0 
  ROW_BUFFER_MISS:        125
  FULL:        365
