WARNING: physical memory size is smaller than virtual memory size.

*** ChampSim Multicore Out-of-Order Simulator ***
Warmup Instructions: 1000000
Simulation Instructions: 1000000
Number of CPUs: 1
Page size: 4096

Off-chip DRAM Size: 4 GiB Channels: 1 Width: 64-bit Data Race: 800 MT/s
Warmup finished CPU 0 instructions: 1000002 cycles: 257793 cumulative IPC: 3.879 (Simulation time: 00 hr 00 min 04 sec)
Warmup complete CPU 0 instructions: 1000002 cycles: 257793 cumulative IPC: 3.879 (Simulation time: 00 hr 00 min 04 sec)
Simulation finished CPU 0 instructions: 1000000 cycles: 2368916 cumulative IPC: 0.4221 (Simulation time: 00 hr 00 min 25 sec)
Simulation complete CPU 0 instructions: 1000000 cycles: 2368916 cumulative IPC: 0.4221 (Simulation time: 00 hr 00 min 25 sec)

ChampSim completed all CPUs

=== Simulation ===
CPU 0 runs /scratch/cluster/hill/traces/spec2006/bwaves_1861B.trace.xz
Region of Interest Statistics

CPU 0 cumulative IPC: 0.4221 instructions: 1000000 cycles: 2368916
CPU 0 Branch Prediction Accuracy: 81.22% MPKI: 5.618 Average ROB Occupancy at Mispredict: 261.4
Branch type MPKI
BRANCH_DIRECT_JUMP: 0
BRANCH_INDIRECT: 0
BRANCH_CONDITIONAL: 5.62
BRANCH_DIRECT_CALL: 0
BRANCH_INDIRECT_CALL: 0
BRANCH_RETURN: 0

LLC TOTAL        ACCESS:      23346 HIT:        579 MISS:      22767
LLC LOAD         ACCESS:      22170 HIT:          0 MISS:      22170
LLC RFO          ACCESS:        584 HIT:          0 MISS:        584
LLC PREFETCH     ACCESS:          0 HIT:          0 MISS:          0
LLC WRITE        ACCESS:        581 HIT:        577 MISS:          4
LLC TRANSLATION  ACCESS:         11 HIT:          2 MISS:          9
LLC PREFETCH REQUESTED:          0 ISSUED:          0 USEFUL:          0 USELESS:          0
LLC AVERAGE MISS LATENCY: 942 cycles
cpu0_DTLB TOTAL        ACCESS:     313812 HIT:     312969 MISS:        843
cpu0_DTLB LOAD         ACCESS:     313812 HIT:     312969 MISS:        843
cpu0_DTLB RFO          ACCESS:          0 HIT:          0 MISS:          0
cpu0_DTLB PREFETCH     ACCESS:          0 HIT:          0 MISS:          0
cpu0_DTLB WRITE        ACCESS:          0 HIT:          0 MISS:          0
cpu0_DTLB TRANSLATION  ACCESS:          0 HIT:          0 MISS:          0
cpu0_DTLB PREFETCH REQUESTED:          0 ISSUED:          0 USEFUL:          0 USELESS:          0
cpu0_DTLB AVERAGE MISS LATENCY: 89.76 cycles
cpu0_ITLB TOTAL        ACCESS:          0 HIT:          0 MISS:          0
cpu0_ITLB LOAD         ACCESS:          0 HIT:          0 MISS:          0
cpu0_ITLB RFO          ACCESS:          0 HIT:          0 MISS:          0
cpu0_ITLB PREFETCH     ACCESS:          0 HIT:          0 MISS:          0
cpu0_ITLB WRITE        ACCESS:          0 HIT:          0 MISS:          0
cpu0_ITLB TRANSLATION  ACCESS:          0 HIT:          0 MISS:          0
cpu0_ITLB PREFETCH REQUESTED:          0 ISSUED:          0 USEFUL:          0 USELESS:          0
cpu0_ITLB AVERAGE MISS LATENCY: -nan cycles
cpu0_L1D TOTAL        ACCESS:     375257 HIT:     326360 MISS:      48897
cpu0_L1D LOAD         ACCESS:     346835 HIT:     300070 MISS:      46765
cpu0_L1D RFO          ACCESS:          0 HIT:          0 MISS:          0
cpu0_L1D PREFETCH     ACCESS:          0 HIT:          0 MISS:          0
cpu0_L1D WRITE        ACCESS:      28069 HIT:      26290 MISS:       1779
cpu0_L1D TRANSLATION  ACCESS:        353 HIT:          0 MISS:        353
cpu0_L1D PREFETCH REQUESTED:          0 ISSUED:          0 USEFUL:          0 USELESS:          0
cpu0_L1D AVERAGE MISS LATENCY: 287.2 cycles
cpu0_L1I TOTAL        ACCESS:          0 HIT:          0 MISS:          0
cpu0_L1I LOAD         ACCESS:          0 HIT:          0 MISS:          0
cpu0_L1I RFO          ACCESS:          0 HIT:          0 MISS:          0
cpu0_L1I PREFETCH     ACCESS:          0 HIT:          0 MISS:          0
cpu0_L1I WRITE        ACCESS:          0 HIT:          0 MISS:          0
cpu0_L1I TRANSLATION  ACCESS:          0 HIT:          0 MISS:          0
cpu0_L1I PREFETCH REQUESTED:          0 ISSUED:          0 USEFUL:          0 USELESS:          0
cpu0_L1I AVERAGE MISS LATENCY: -nan cycles
cpu0_L2C TOTAL        ACCESS:      25123 HIT:       2348 MISS:      22775
cpu0_L2C LOAD         ACCESS:      23518 HIT:       1342 MISS:      22176
cpu0_L2C RFO          ACCESS:        602 HIT:         18 MISS:        584
cpu0_L2C PREFETCH     ACCESS:          0 HIT:          0 MISS:          0
cpu0_L2C WRITE        ACCESS:        650 HIT:        646 MISS:          4
cpu0_L2C TRANSLATION  ACCESS:        353 HIT:        342 MISS:         11
cpu0_L2C PREFETCH REQUESTED:          0 ISSUED:          0 USEFUL:          0 USELESS:          0
cpu0_L2C AVERAGE MISS LATENCY: 962.7 cycles
cpu0_STLB TOTAL        ACCESS:        352 HIT:          0 MISS:        352
cpu0_STLB LOAD         ACCESS:        352 HIT:          0 MISS:        352
cpu0_STLB RFO          ACCESS:          0 HIT:          0 MISS:          0
cpu0_STLB PREFETCH     ACCESS:          0 HIT:          0 MISS:          0
cpu0_STLB WRITE        ACCESS:          0 HIT:          0 MISS:          0
cpu0_STLB TRANSLATION  ACCESS:          0 HIT:          0 MISS:          0
cpu0_STLB PREFETCH REQUESTED:          0 ISSUED:          0 USEFUL:          0 USELESS:          0
cpu0_STLB AVERAGE MISS LATENCY: 284.3 cycles

DRAM Statistics

Channel 0 RQ ROW_BUFFER_HIT:      16816
  ROW_BUFFER_MISS:       5939
 AVG DBUS CONGESTED CYCLE: 3.787
WQ ROW_BUFFER_HIT: Channel 0 
  ROW_BUFFER_MISS:        206
  FULL:        143
