WARNING: physical memory size is smaller than virtual memory size.

*** ChampSim Multicore Out-of-Order Simulator ***
Warmup Instructions: 1000000
Simulation Instructions: 1000000
Number of CPUs: 1
Page size: 4096

Off-chip DRAM Size: 4 GiB Channels: 1 Width: 64-bit Data Race: 800 MT/s
Warmup finished CPU 0 instructions: 1000003 cycles: 250097 cumulative IPC: 3.998 (Simulation time: 00 hr 00 min 03 sec)
Warmup complete CPU 0 instructions: 1000003 cycles: 250097 cumulative IPC: 3.998 (Simulation time: 00 hr 00 min 03 sec)
Simulation finished CPU 0 instructions: 1000000 cycles: 2210314 cumulative IPC: 0.4524 (Simulation time: 00 hr 00 min 16 sec)
Simulation complete CPU 0 instructions: 1000000 cycles: 2210314 cumulative IPC: 0.4524 (Simulation time: 00 hr 00 min 16 sec)

ChampSim completed all CPUs

=== Simulation ===
CPU 0 runs /scratch/cluster/hill/traces/spec2006/astar_23B.trace.xz
Region of Interest Statistics

CPU 0 cumulative IPC: 0.4524 instructions: 1000000 cycles: 2210314
CPU 0 Branch Prediction Accuracy: 73.73% MPKI: 50.04 Average ROB Occupancy at Mispredict: 5.34
Branch type MPKI
BRANCH_DIRECT_JUMP: 0
BRANCH_INDIRECT: 0
BRANCH_CONDITIONAL: 50
BRANCH_DIRECT_CALL: 0
BRANCH_INDIRECT_CALL: 0
BRANCH_RETURN: 0

LLC TOTAL        ACCESS:      31883 HIT:      29009 MISS:       2874
LLC LOAD         ACCESS:      23917 HIT:      21058 MISS:       2859
LLC RFO          ACCESS:        106 HIT:        105 MISS:          1
LLC PREFETCH     ACCESS:          0 HIT:          0 MISS:          0
LLC WRITE        ACCESS:       7795 HIT:       7795 MISS:          0
LLC TRANSLATION  ACCESS:         65 HIT:         51 MISS:         14
LLC PREFETCH REQUESTED:          0 ISSUED:          0 USEFUL:          0 USELESS:          0
LLC AVERAGE MISS LATENCY: 179.4 cycles
cpu0_DTLB TOTAL        ACCESS:     276085 HIT:     238447 MISS:      37638
cpu0_DTLB LOAD         ACCESS:     276085 HIT:     238447 MISS:      37638
cpu0_DTLB RFO          ACCESS:          0 HIT:          0 MISS:          0
cpu0_DTLB PREFETCH     ACCESS:          0 HIT:          0 MISS:          0
cpu0_DTLB WRITE        ACCESS:          0 HIT:          0 MISS:          0
cpu0_DTLB TRANSLATION  ACCESS:          0 HIT:          0 MISS:          0
cpu0_DTLB PREFETCH REQUESTED:          0 ISSUED:          0 USEFUL:          0 USELESS:          0
cpu0_DTLB AVERAGE MISS LATENCY: 7.145 cycles
cpu0_ITLB TOTAL        ACCESS:          0 HIT:          0 MISS:          0
cpu0_ITLB LOAD         ACCESS:          0 HIT:          0 MISS:          0
cpu0_ITLB RFO          ACCESS:          0 HIT:          0 MISS:          0
cpu0_ITLB PREFETCH     ACCESS:          0 HIT:          0 MISS:          0
cpu0_ITLB WRITE        ACCESS:          0 HIT:          0 MISS:          0
cpu0_ITLB TRANSLATION  ACCESS:          0 HIT:          0 MISS:          0
cpu0_ITLB PREFETCH REQUESTED:          0 ISSUED:          0 USEFUL:          0 USELESS:          0
cpu0_ITLB AVERAGE MISS LATENCY: -nan cycles
cpu0_L1D TOTAL        ACCESS:     307461 HIT:     260353 MISS:      47108
cpu0_L1D LOAD         ACCESS:     264114 HIT:     217572 MISS:      46542
cpu0_L1D RFO          ACCESS:          0 HIT:          0 MISS:          0
cpu0_L1D PREFETCH     ACCESS:          0 HIT:          0 MISS:          0
cpu0_L1D WRITE        ACCESS:      42936 HIT:      42533 MISS:        403
cpu0_L1D TRANSLATION  ACCESS:        411 HIT:        248 MISS:        163
cpu0_L1D PREFETCH REQUESTED:          0 ISSUED:          0 USEFUL:          0 USELESS:          0
cpu0_L1D AVERAGE MISS LATENCY: 28.37 cycles
cpu0_L1I TOTAL        ACCESS:          0 HIT:          0 MISS:          0
cpu0_L1I LOAD         ACCESS:          0 HIT:          0 MISS:          0
cpu0_L1I RFO          ACCESS:          0 HIT:          0 MISS:          0
cpu0_L1I PREFETCH     ACCESS:          0 HIT:          0 MISS:          0
cpu0_L1I WRITE        ACCESS:          0 HIT:          0 MISS:          0
cpu0_L1I TRANSLATION  ACCESS:          0 HIT:          0 MISS:          0
cpu0_L1I PREFETCH REQUESTED:          0 ISSUED:          0 USEFUL:          0 USELESS:          0
cpu0_L1I AVERAGE MISS LATENCY: -nan cycles
cpu0_L2C TOTAL        ACCESS:      42937 HIT:      18630 MISS:      24307
cpu0_L2C LOAD         ACCESS:      31805 HIT:       7889 MISS:      23916
cpu0_L2C RFO          ACCESS:        364 HIT:        258 MISS:        106
cpu0_L2C PREFETCH     ACCESS:          0 HIT:          0 MISS:          0
cpu0_L2C WRITE        ACCESS:      10606 HIT:      10386 MISS:        220
cpu0_L2C TRANSLATION  ACCESS:        162 HIT:         97 MISS:         65
cpu0_L2C PREFETCH REQUESTED:          0 ISSUED:          0 USEFUL:          0 USELESS:          0
cpu0_L2C AVERAGE MISS LATENCY: 41.16 cycles
cpu0_STLB TOTAL        ACCESS:      27358 HIT:      26947 MISS:        411
cpu0_STLB LOAD         ACCESS:      27358 HIT:      26947 MISS:        411
cpu0_STLB RFO          ACCESS:          0 HIT:          0 MISS:          0
cpu0_STLB PREFETCH     ACCESS:          0 HIT:          0 MISS:          0
cpu0_STLB WRITE        ACCESS:          0 HIT:          0 MISS:          0
cpu0_STLB TRANSLATION  ACCESS:          0 HIT:          0 MISS:          0
cpu0_STLB PREFETCH REQUESTED:          0 ISSUED:          0 USEFUL:          0 USELESS:          0
cpu0_STLB AVERAGE MISS LATENCY: 180 cycles

DRAM Statistics

Channel 0 RQ ROW_BUFFER_HIT:       1056
  ROW_BUFFER_MISS:       1810
 AVG DBUS CONGESTED CYCLE: 3.772
WQ ROW_BUFFER_HIT: Channel 0 
  ROW_BUFFER_MISS:         52
  FULL:        346
