WARNING: physical memory size is smaller than virtual memory size.

*** ChampSim Multicore Out-of-Order Simulator ***
Warmup Instructions: 5000000
Simulation Instructions: 5000000
Number of CPUs: 1
Page size: 4096

Off-chip DRAM Size: 4 GiB Channels: 1 Width: 64-bit Data Race: 800 MT/s
Warmup finished CPU 0 instructions: 5000001 cycles: 1268838 cumulative IPC: 3.941 (Simulation time: 00 hr 01 min 23 sec)
Warmup complete CPU 0 instructions: 5000001 cycles: 1268838 cumulative IPC: 3.941 (Simulation time: 00 hr 01 min 23 sec)
Heartbeat CPU 0 instructions: 10000003 cycles: 3640121 heartbeat IPC: 2.747 cumulative IPC: 2.109 (Simulation time: 00 hr 02 min 52 sec)
Simulation finished CPU 0 instructions: 5000002 cycles: 2371284 cumulative IPC: 2.109 (Simulation time: 00 hr 02 min 52 sec)
Simulation complete CPU 0 instructions: 5000002 cycles: 2371284 cumulative IPC: 2.109 (Simulation time: 00 hr 02 min 52 sec)

ChampSim completed all CPUs

=== Simulation ===
CPU 0 runs /scratch/cluster/hill/traces/spec2006/wrf_1212B.trace.xz
Region of Interest Statistics

CPU 0 cumulative IPC: 2.109 instructions: 5000002 cycles: 2371284
CPU 0 Branch Prediction Accuracy: 93.16% MPKI: 12.16 Average ROB Occupancy at Mispredict: 52.32
Branch type MPKI
BRANCH_DIRECT_JUMP: 0
BRANCH_INDIRECT: 0
BRANCH_CONDITIONAL: 10.8
BRANCH_DIRECT_CALL: 0
BRANCH_INDIRECT_CALL: 0
BRANCH_RETURN: 1.37

LLC TOTAL        ACCESS:       6132 HIT:       2036 MISS:       4096
LLC LOAD         ACCESS:       4150 HIT:        139 MISS:       4011
LLC RFO          ACCESS:         53 HIT:          5 MISS:         48
LLC PREFETCH     ACCESS:          0 HIT:          0 MISS:          0
LLC WRITE        ACCESS:       1871 HIT:       1871 MISS:          0
LLC TRANSLATION  ACCESS:         58 HIT:         21 MISS:         37
LLC PREFETCH REQUESTED:          0 ISSUED:          0 USEFUL:          0 USELESS:          0
LLC AVERAGE MISS LATENCY: 648.5 cycles
cpu0_DTLB TOTAL        ACCESS:    1265920 HIT:    1236364 MISS:      29556
cpu0_DTLB LOAD         ACCESS:    1265920 HIT:    1236364 MISS:      29556
cpu0_DTLB RFO          ACCESS:          0 HIT:          0 MISS:          0
cpu0_DTLB PREFETCH     ACCESS:          0 HIT:          0 MISS:          0
cpu0_DTLB WRITE        ACCESS:          0 HIT:          0 MISS:          0
cpu0_DTLB TRANSLATION  ACCESS:          0 HIT:          0 MISS:          0
cpu0_DTLB PREFETCH REQUESTED:          0 ISSUED:          0 USEFUL:          0 USELESS:          0
cpu0_DTLB AVERAGE MISS LATENCY: 3.818 cycles
cpu0_ITLB TOTAL        ACCESS:      95641 HIT:      95641 MISS:          0
cpu0_ITLB LOAD         ACCESS:      95641 HIT:      95641 MISS:          0
cpu0_ITLB RFO          ACCESS:          0 HIT:          0 MISS:          0
cpu0_ITLB PREFETCH     ACCESS:          0 HIT:          0 MISS:          0
cpu0_ITLB WRITE        ACCESS:          0 HIT:          0 MISS:          0
cpu0_ITLB TRANSLATION  ACCESS:          0 HIT:          0 MISS:          0
cpu0_ITLB PREFETCH REQUESTED:          0 ISSUED:          0 USEFUL:          0 USELESS:          0
cpu0_ITLB AVERAGE MISS LATENCY: -nan cycles
cpu0_L1D TOTAL        ACCESS:    1747698 HIT:    1613056 MISS:     134642
cpu0_L1D LOAD         ACCESS:     952460 HIT:     896540 MISS:      55920
cpu0_L1D RFO          ACCESS:          0 HIT:          0 MISS:          0
cpu0_L1D PREFETCH     ACCESS:          0 HIT:          0 MISS:          0
cpu0_L1D WRITE        ACCESS:     795178 HIT:     716516 MISS:      78662
cpu0_L1D TRANSLATION  ACCESS:         60 HIT:          0 MISS:         60
cpu0_L1D PREFETCH REQUESTED:          0 ISSUED:          0 USEFUL:          0 USELESS:          0
cpu0_L1D AVERAGE MISS LATENCY: 27.88 cycles
cpu0_L1I TOTAL        ACCESS:     115586 HIT:     111162 MISS:       4424
cpu0_L1I LOAD         ACCESS:     115586 HIT:     111162 MISS:       4424
cpu0_L1I RFO          ACCESS:          0 HIT:          0 MISS:          0
cpu0_L1I PREFETCH     ACCESS:          0 HIT:          0 MISS:          0
cpu0_L1I WRITE        ACCESS:          0 HIT:          0 MISS:          0
cpu0_L1I TRANSLATION  ACCESS:          0 HIT:          0 MISS:          0
cpu0_L1I PREFETCH REQUESTED:          0 ISSUED:          0 USEFUL:          0 USELESS:          0
cpu0_L1I AVERAGE MISS LATENCY: 6.155 cycles
cpu0_L2C TOTAL        ACCESS:     133989 HIT:     129726 MISS:       4263
cpu0_L2C LOAD         ACCESS:      57311 HIT:      53161 MISS:       4150
cpu0_L2C RFO          ACCESS:      29433 HIT:      29380 MISS:         53
cpu0_L2C PREFETCH     ACCESS:          0 HIT:          0 MISS:          0
cpu0_L2C WRITE        ACCESS:      47185 HIT:      47183 MISS:          2
cpu0_L2C TRANSLATION  ACCESS:         60 HIT:          2 MISS:         58
cpu0_L2C PREFETCH REQUESTED:          0 ISSUED:          0 USEFUL:          0 USELESS:          0
cpu0_L2C AVERAGE MISS LATENCY: 644 cycles
cpu0_STLB TOTAL        ACCESS:      13115 HIT:      13055 MISS:         60
cpu0_STLB LOAD         ACCESS:      13115 HIT:      13055 MISS:         60
cpu0_STLB RFO          ACCESS:          0 HIT:          0 MISS:          0
cpu0_STLB PREFETCH     ACCESS:          0 HIT:          0 MISS:          0
cpu0_STLB WRITE        ACCESS:          0 HIT:          0 MISS:          0
cpu0_STLB TRANSLATION  ACCESS:          0 HIT:          0 MISS:          0
cpu0_STLB PREFETCH REQUESTED:          0 ISSUED:          0 USEFUL:          0 USELESS:          0
cpu0_STLB AVERAGE MISS LATENCY: 1210 cycles

DRAM Statistics

Channel 0 RQ ROW_BUFFER_HIT:       1879
  ROW_BUFFER_MISS:       2217
 AVG DBUS CONGESTED CYCLE: 3.848
WQ ROW_BUFFER_HIT: Channel 0 
  ROW_BUFFER_MISS:          0
  FULL:          0
