WARNING: physical memory size is smaller than virtual memory size.

*** ChampSim Multicore Out-of-Order Simulator ***
Warmup Instructions: 5000000
Simulation Instructions: 5000000
Number of CPUs: 1
Page size: 4096

Off-chip DRAM Size: 4 GiB Channels: 1 Width: 64-bit Data Race: 800 MT/s
Warmup finished CPU 0 instructions: 5000002 cycles: 1250089 cumulative IPC: 4 (Simulation time: 00 hr 00 min 49 sec)
Warmup complete CPU 0 instructions: 5000002 cycles: 1250089 cumulative IPC: 4 (Simulation time: 00 hr 00 min 49 sec)
Heartbeat CPU 0 instructions: 10000003 cycles: 5849137 heartbeat IPC: 1.71 cumulative IPC: 1.087 (Simulation time: 00 hr 02 min 02 sec)
Simulation finished CPU 0 instructions: 5000001 cycles: 4599049 cumulative IPC: 1.087 (Simulation time: 00 hr 02 min 02 sec)
Simulation complete CPU 0 instructions: 5000001 cycles: 4599049 cumulative IPC: 1.087 (Simulation time: 00 hr 02 min 02 sec)

ChampSim completed all CPUs

=== Simulation ===
CPU 0 runs /scratch/cluster/hill/traces/spec2006/omnetpp_17B.trace.xz
Region of Interest Statistics

CPU 0 cumulative IPC: 1.087 instructions: 5000001 cycles: 4599049
CPU 0 Branch Prediction Accuracy: 99.37% MPKI: 2.086 Average ROB Occupancy at Mispredict: 153.3
Branch type MPKI
BRANCH_DIRECT_JUMP: 0.0112
BRANCH_INDIRECT: 0.0844
BRANCH_CONDITIONAL: 1.92
BRANCH_DIRECT_CALL: 0.0172
BRANCH_INDIRECT_CALL: 0.0076
BRANCH_RETURN: 0.0424

LLC TOTAL        ACCESS:      72391 HIT:      22543 MISS:      49848
LLC LOAD         ACCESS:      64864 HIT:      21519 MISS:      43345
LLC RFO          ACCESS:        509 HIT:         24 MISS:        485
LLC PREFETCH     ACCESS:          0 HIT:          0 MISS:          0
LLC WRITE        ACCESS:        242 HIT:        242 MISS:          0
LLC TRANSLATION  ACCESS:       6776 HIT:        758 MISS:       6018
LLC PREFETCH REQUESTED:          0 ISSUED:          0 USEFUL:          0 USELESS:          0
LLC AVERAGE MISS LATENCY: 859.7 cycles
cpu0_DTLB TOTAL        ACCESS:     521106 HIT:     465005 MISS:      56101
cpu0_DTLB LOAD         ACCESS:     521106 HIT:     465005 MISS:      56101
cpu0_DTLB RFO          ACCESS:          0 HIT:          0 MISS:          0
cpu0_DTLB PREFETCH     ACCESS:          0 HIT:          0 MISS:          0
cpu0_DTLB WRITE        ACCESS:          0 HIT:          0 MISS:          0
cpu0_DTLB TRANSLATION  ACCESS:          0 HIT:          0 MISS:          0
cpu0_DTLB PREFETCH REQUESTED:          0 ISSUED:          0 USEFUL:          0 USELESS:          0
cpu0_DTLB AVERAGE MISS LATENCY: 199.8 cycles
cpu0_ITLB TOTAL        ACCESS:      33360 HIT:      33139 MISS:        221
cpu0_ITLB LOAD         ACCESS:      33360 HIT:      33139 MISS:        221
cpu0_ITLB RFO          ACCESS:          0 HIT:          0 MISS:          0
cpu0_ITLB PREFETCH     ACCESS:          0 HIT:          0 MISS:          0
cpu0_ITLB WRITE        ACCESS:          0 HIT:          0 MISS:          0
cpu0_ITLB TRANSLATION  ACCESS:          0 HIT:          0 MISS:          0
cpu0_ITLB PREFETCH REQUESTED:          0 ISSUED:          0 USEFUL:          0 USELESS:          0
cpu0_ITLB AVERAGE MISS LATENCY: 36.86 cycles
cpu0_L1D TOTAL        ACCESS:     619190 HIT:     519218 MISS:      99972
cpu0_L1D LOAD         ACCESS:     406678 HIT:     317098 MISS:      89580
cpu0_L1D RFO          ACCESS:          0 HIT:          0 MISS:          0
cpu0_L1D PREFETCH     ACCESS:          0 HIT:          0 MISS:          0
cpu0_L1D WRITE        ACCESS:     172757 HIT:     170092 MISS:       2665
cpu0_L1D TRANSLATION  ACCESS:      39755 HIT:      32028 MISS:       7727
cpu0_L1D PREFETCH REQUESTED:          0 ISSUED:          0 USEFUL:          0 USELESS:          0
cpu0_L1D AVERAGE MISS LATENCY: 434.9 cycles
cpu0_L1I TOTAL        ACCESS:      37046 HIT:      36507 MISS:        539
cpu0_L1I LOAD         ACCESS:      37046 HIT:      36507 MISS:        539
cpu0_L1I RFO          ACCESS:          0 HIT:          0 MISS:          0
cpu0_L1I PREFETCH     ACCESS:          0 HIT:          0 MISS:          0
cpu0_L1I WRITE        ACCESS:          0 HIT:          0 MISS:          0
cpu0_L1I TRANSLATION  ACCESS:          0 HIT:          0 MISS:          0
cpu0_L1I PREFETCH REQUESTED:          0 ISSUED:          0 USEFUL:          0 USELESS:          0
cpu0_L1I AVERAGE MISS LATENCY: 126 cycles
cpu0_L2C TOTAL        ACCESS:      75526 HIT:       3377 MISS:      72149
cpu0_L2C LOAD         ACCESS:      67164 HIT:       2300 MISS:      64864
cpu0_L2C RFO          ACCESS:        564 HIT:         55 MISS:        509
cpu0_L2C PREFETCH     ACCESS:          0 HIT:          0 MISS:          0
cpu0_L2C WRITE        ACCESS:        595 HIT:        595 MISS:          0
cpu0_L2C TRANSLATION  ACCESS:       7203 HIT:        427 MISS:       6776
cpu0_L2C PREFETCH REQUESTED:          0 ISSUED:          0 USEFUL:          0 USELESS:          0
cpu0_L2C AVERAGE MISS LATENCY: 614.7 cycles
cpu0_STLB TOTAL        ACCESS:      41267 HIT:       1855 MISS:      39412
cpu0_STLB LOAD         ACCESS:      41267 HIT:       1855 MISS:      39412
cpu0_STLB RFO          ACCESS:          0 HIT:          0 MISS:          0
cpu0_STLB PREFETCH     ACCESS:          0 HIT:          0 MISS:          0
cpu0_STLB WRITE        ACCESS:          0 HIT:          0 MISS:          0
cpu0_STLB TRANSLATION  ACCESS:          0 HIT:          0 MISS:          0
cpu0_STLB PREFETCH REQUESTED:          0 ISSUED:          0 USEFUL:          0 USELESS:          0
cpu0_STLB AVERAGE MISS LATENCY: 288.2 cycles

DRAM Statistics

Channel 0 RQ ROW_BUFFER_HIT:      19166
  ROW_BUFFER_MISS:      30679
 AVG DBUS CONGESTED CYCLE: 3.845
WQ ROW_BUFFER_HIT: Channel 0 
  ROW_BUFFER_MISS:         41
  FULL:        222
