WARNING: physical memory size is smaller than virtual memory size.

*** ChampSim Multicore Out-of-Order Simulator ***
Warmup Instructions: 5000000
Simulation Instructions: 5000000
Number of CPUs: 1
Page size: 4096

Off-chip DRAM Size: 4 GiB Channels: 1 Width: 64-bit Data Race: 800 MT/s
Warmup finished CPU 0 instructions: 5000003 cycles: 1323654 cumulative IPC: 3.777 (Simulation time: 00 hr 01 min 08 sec)
Warmup complete CPU 0 instructions: 5000003 cycles: 1323654 cumulative IPC: 3.777 (Simulation time: 00 hr 01 min 08 sec)
Heartbeat CPU 0 instructions: 10000003 cycles: 12247386 heartbeat IPC: 0.8165 cumulative IPC: 0.4577 (Simulation time: 00 hr 04 min 30 sec)
Simulation finished CPU 0 instructions: 5000000 cycles: 10923733 cumulative IPC: 0.4577 (Simulation time: 00 hr 04 min 30 sec)
Simulation complete CPU 0 instructions: 5000000 cycles: 10923733 cumulative IPC: 0.4577 (Simulation time: 00 hr 04 min 30 sec)

ChampSim completed all CPUs

=== Simulation ===
CPU 0 runs /scratch/cluster/hill/traces/spec2006/leslie3d_94B.trace.xz
Region of Interest Statistics

CPU 0 cumulative IPC: 0.4577 instructions: 5000000 cycles: 10923733
CPU 0 Branch Prediction Accuracy: 99.61% MPKI: 0.1606 Average ROB Occupancy at Mispredict: 345
Branch type MPKI
BRANCH_DIRECT_JUMP: 0
BRANCH_INDIRECT: 0
BRANCH_CONDITIONAL: 0.161
BRANCH_DIRECT_CALL: 0
BRANCH_INDIRECT_CALL: 0
BRANCH_RETURN: 0

LLC TOTAL        ACCESS:     134180 HIT:      34016 MISS:     100164
LLC LOAD         ACCESS:      95765 HIT:       3642 MISS:      92123
LLC RFO          ACCESS:      14356 HIT:       6570 MISS:       7786
LLC PREFETCH     ACCESS:          0 HIT:          0 MISS:          0
LLC WRITE        ACCESS:      23849 HIT:      23627 MISS:        222
LLC TRANSLATION  ACCESS:        210 HIT:        177 MISS:         33
LLC PREFETCH REQUESTED:          0 ISSUED:          0 USEFUL:          0 USELESS:          0
LLC AVERAGE MISS LATENCY: 1069 cycles
cpu0_DTLB TOTAL        ACCESS:    1437294 HIT:    1428466 MISS:       8828
cpu0_DTLB LOAD         ACCESS:    1437294 HIT:    1428466 MISS:       8828
cpu0_DTLB RFO          ACCESS:          0 HIT:          0 MISS:          0
cpu0_DTLB PREFETCH     ACCESS:          0 HIT:          0 MISS:          0
cpu0_DTLB WRITE        ACCESS:          0 HIT:          0 MISS:          0
cpu0_DTLB TRANSLATION  ACCESS:          0 HIT:          0 MISS:          0
cpu0_DTLB PREFETCH REQUESTED:          0 ISSUED:          0 USEFUL:          0 USELESS:          0
cpu0_DTLB AVERAGE MISS LATENCY: 15.28 cycles
cpu0_ITLB TOTAL        ACCESS:      68622 HIT:      68622 MISS:          0
cpu0_ITLB LOAD         ACCESS:      68622 HIT:      68622 MISS:          0
cpu0_ITLB RFO          ACCESS:          0 HIT:          0 MISS:          0
cpu0_ITLB PREFETCH     ACCESS:          0 HIT:          0 MISS:          0
cpu0_ITLB WRITE        ACCESS:          0 HIT:          0 MISS:          0
cpu0_ITLB TRANSLATION  ACCESS:          0 HIT:          0 MISS:          0
cpu0_ITLB PREFETCH REQUESTED:          0 ISSUED:          0 USEFUL:          0 USELESS:          0
cpu0_ITLB AVERAGE MISS LATENCY: -nan cycles
cpu0_L1D TOTAL        ACCESS:    1975123 HIT:    1385571 MISS:     589552
cpu0_L1D LOAD         ACCESS:    1342578 HIT:     898416 MISS:     444162
cpu0_L1D RFO          ACCESS:          0 HIT:          0 MISS:          0
cpu0_L1D PREFETCH     ACCESS:          0 HIT:          0 MISS:          0
cpu0_L1D WRITE        ACCESS:     631732 HIT:     487013 MISS:     144719
cpu0_L1D TRANSLATION  ACCESS:        813 HIT:        142 MISS:        671
cpu0_L1D PREFETCH REQUESTED:          0 ISSUED:          0 USEFUL:          0 USELESS:          0
cpu0_L1D AVERAGE MISS LATENCY: 125.9 cycles
cpu0_L1I TOTAL        ACCESS:      79222 HIT:      79222 MISS:          0
cpu0_L1I LOAD         ACCESS:      79222 HIT:      79222 MISS:          0
cpu0_L1I RFO          ACCESS:          0 HIT:          0 MISS:          0
cpu0_L1I PREFETCH     ACCESS:          0 HIT:          0 MISS:          0
cpu0_L1I WRITE        ACCESS:          0 HIT:          0 MISS:          0
cpu0_L1I TRANSLATION  ACCESS:          0 HIT:          0 MISS:          0
cpu0_L1I PREFETCH REQUESTED:          0 ISSUED:          0 USEFUL:          0 USELESS:          0
cpu0_L1I AVERAGE MISS LATENCY: -nan cycles
cpu0_L2C TOTAL        ACCESS:     246898 HIT:     136552 MISS:     110346
cpu0_L2C LOAD         ACCESS:     150354 HIT:      54589 MISS:      95765
cpu0_L2C RFO          ACCESS:      37657 HIT:      23301 MISS:      14356
cpu0_L2C PREFETCH     ACCESS:          0 HIT:          0 MISS:          0
cpu0_L2C WRITE        ACCESS:      58216 HIT:      58201 MISS:         15
cpu0_L2C TRANSLATION  ACCESS:        671 HIT:        461 MISS:        210
cpu0_L2C PREFETCH REQUESTED:          0 ISSUED:          0 USEFUL:          0 USELESS:          0
cpu0_L2C AVERAGE MISS LATENCY: 991.6 cycles
cpu0_STLB TOTAL        ACCESS:       2659 HIT:       1847 MISS:        812
cpu0_STLB LOAD         ACCESS:       2659 HIT:       1847 MISS:        812
cpu0_STLB RFO          ACCESS:          0 HIT:          0 MISS:          0
cpu0_STLB PREFETCH     ACCESS:          0 HIT:          0 MISS:          0
cpu0_STLB WRITE        ACCESS:          0 HIT:          0 MISS:          0
cpu0_STLB TRANSLATION  ACCESS:          0 HIT:          0 MISS:          0
cpu0_STLB PREFETCH REQUESTED:          0 ISSUED:          0 USEFUL:          0 USELESS:          0
cpu0_STLB AVERAGE MISS LATENCY: 286.9 cycles

DRAM Statistics

Channel 0 RQ ROW_BUFFER_HIT:      44592
  ROW_BUFFER_MISS:      55252
 AVG DBUS CONGESTED CYCLE: 3.94
WQ ROW_BUFFER_HIT: Channel 0 
  ROW_BUFFER_MISS:       3881
  FULL:      29186
