WARNING: physical memory size is smaller than virtual memory size.

*** ChampSim Multicore Out-of-Order Simulator ***
Warmup Instructions: 5000000
Simulation Instructions: 5000000
Number of CPUs: 1
Page size: 4096

Off-chip DRAM Size: 4 GiB Channels: 1 Width: 64-bit Data Race: 800 MT/s
Warmup finished CPU 0 instructions: 5000002 cycles: 1268380 cumulative IPC: 3.942 (Simulation time: 00 hr 01 min 00 sec)
Warmup complete CPU 0 instructions: 5000002 cycles: 1268380 cumulative IPC: 3.942 (Simulation time: 00 hr 01 min 00 sec)
Heartbeat CPU 0 instructions: 10000003 cycles: 3602210 heartbeat IPC: 2.776 cumulative IPC: 2.142 (Simulation time: 00 hr 02 min 21 sec)
Simulation finished CPU 0 instructions: 5000001 cycles: 2333831 cumulative IPC: 2.142 (Simulation time: 00 hr 02 min 21 sec)
Simulation complete CPU 0 instructions: 5000001 cycles: 2333831 cumulative IPC: 2.142 (Simulation time: 00 hr 02 min 21 sec)

ChampSim completed all CPUs

=== Simulation ===
CPU 0 runs /scratch/cluster/hill/traces/spec2006/zeusmp_600B.trace.xz
Region of Interest Statistics

CPU 0 cumulative IPC: 2.142 instructions: 5000001 cycles: 2333831
CPU 0 Branch Prediction Accuracy: 99.54% MPKI: 0.175 Average ROB Occupancy at Mispredict: 313.7
Branch type MPKI
BRANCH_DIRECT_JUMP: 0
BRANCH_INDIRECT: 0
BRANCH_CONDITIONAL: 0.175
BRANCH_DIRECT_CALL: 0
BRANCH_INDIRECT_CALL: 0
BRANCH_RETURN: 0

LLC TOTAL        ACCESS:      20910 HIT:       5202 MISS:      15708
LLC LOAD         ACCESS:      14914 HIT:       2189 MISS:      12725
LLC RFO          ACCESS:       2982 HIT:          0 MISS:       2982
LLC PREFETCH     ACCESS:          0 HIT:          0 MISS:          0
LLC WRITE        ACCESS:       2991 HIT:       2990 MISS:          1
LLC TRANSLATION  ACCESS:         23 HIT:         23 MISS:          0
LLC PREFETCH REQUESTED:          0 ISSUED:          0 USEFUL:          0 USELESS:          0
LLC AVERAGE MISS LATENCY: 432.2 cycles
cpu0_DTLB TOTAL        ACCESS:     961263 HIT:     816780 MISS:     144483
cpu0_DTLB LOAD         ACCESS:     961263 HIT:     816780 MISS:     144483
cpu0_DTLB RFO          ACCESS:          0 HIT:          0 MISS:          0
cpu0_DTLB PREFETCH     ACCESS:          0 HIT:          0 MISS:          0
cpu0_DTLB WRITE        ACCESS:          0 HIT:          0 MISS:          0
cpu0_DTLB TRANSLATION  ACCESS:          0 HIT:          0 MISS:          0
cpu0_DTLB PREFETCH REQUESTED:          0 ISSUED:          0 USEFUL:          0 USELESS:          0
cpu0_DTLB AVERAGE MISS LATENCY: 7.592 cycles
cpu0_ITLB TOTAL        ACCESS:      63038 HIT:      63038 MISS:          0
cpu0_ITLB LOAD         ACCESS:      63038 HIT:      63038 MISS:          0
cpu0_ITLB RFO          ACCESS:          0 HIT:          0 MISS:          0
cpu0_ITLB PREFETCH     ACCESS:          0 HIT:          0 MISS:          0
cpu0_ITLB WRITE        ACCESS:          0 HIT:          0 MISS:          0
cpu0_ITLB TRANSLATION  ACCESS:          0 HIT:          0 MISS:          0
cpu0_ITLB PREFETCH REQUESTED:          0 ISSUED:          0 USEFUL:          0 USELESS:          0
cpu0_ITLB AVERAGE MISS LATENCY: -nan cycles
cpu0_L1D TOTAL        ACCESS:    1157350 HIT:    1125844 MISS:      31506
cpu0_L1D LOAD         ACCESS:     784176 HIT:     759637 MISS:      24539
cpu0_L1D RFO          ACCESS:          0 HIT:          0 MISS:          0
cpu0_L1D PREFETCH     ACCESS:          0 HIT:          0 MISS:          0
cpu0_L1D WRITE        ACCESS:     372926 HIT:     366207 MISS:       6719
cpu0_L1D TRANSLATION  ACCESS:        248 HIT:          0 MISS:        248
cpu0_L1D PREFETCH REQUESTED:          0 ISSUED:          0 USEFUL:          0 USELESS:          0
cpu0_L1D AVERAGE MISS LATENCY: 237.1 cycles
cpu0_L1I TOTAL        ACCESS:      75203 HIT:      75203 MISS:          0
cpu0_L1I LOAD         ACCESS:      75203 HIT:      75203 MISS:          0
cpu0_L1I RFO          ACCESS:          0 HIT:          0 MISS:          0
cpu0_L1I PREFETCH     ACCESS:          0 HIT:          0 MISS:          0
cpu0_L1I WRITE        ACCESS:          0 HIT:          0 MISS:          0
cpu0_L1I TRANSLATION  ACCESS:          0 HIT:          0 MISS:          0
cpu0_L1I PREFETCH REQUESTED:          0 ISSUED:          0 USEFUL:          0 USELESS:          0
cpu0_L1I AVERAGE MISS LATENCY: -nan cycles
cpu0_L2C TOTAL        ACCESS:      37448 HIT:      19519 MISS:      17929
cpu0_L2C LOAD         ACCESS:      22548 HIT:       7634 MISS:      14914
cpu0_L2C RFO          ACCESS:       6719 HIT:       3737 MISS:       2982
cpu0_L2C PREFETCH     ACCESS:          0 HIT:          0 MISS:          0
cpu0_L2C WRITE        ACCESS:       7933 HIT:       7923 MISS:         10
cpu0_L2C TRANSLATION  ACCESS:        248 HIT:        225 MISS:         23
cpu0_L2C PREFETCH REQUESTED:          0 ISSUED:          0 USEFUL:          0 USELESS:          0
cpu0_L2C AVERAGE MISS LATENCY: 399.5 cycles
cpu0_STLB TOTAL        ACCESS:     133051 HIT:     132803 MISS:        248
cpu0_STLB LOAD         ACCESS:     133051 HIT:     132803 MISS:        248
cpu0_STLB RFO          ACCESS:          0 HIT:          0 MISS:          0
cpu0_STLB PREFETCH     ACCESS:          0 HIT:          0 MISS:          0
cpu0_STLB WRITE        ACCESS:          0 HIT:          0 MISS:          0
cpu0_STLB TRANSLATION  ACCESS:          0 HIT:          0 MISS:          0
cpu0_STLB PREFETCH REQUESTED:          0 ISSUED:          0 USEFUL:          0 USELESS:          0
cpu0_STLB AVERAGE MISS LATENCY: 238.2 cycles

DRAM Statistics

Channel 0 RQ ROW_BUFFER_HIT:        135
  ROW_BUFFER_MISS:      15572
 AVG DBUS CONGESTED CYCLE: 3.922
WQ ROW_BUFFER_HIT: Channel 0 
  ROW_BUFFER_MISS:          0
  FULL:        181
